<?xml version="1.0" encoding="UTF-8"?>

<!-- generated on 2022-01-01 10:39:05 by Eclipse SUMO polyconvert Version 1.11.0
<configuration xmlns:xsi="http://www.w3.org/2001/XMLSchema-instance" xsi:noNamespaceSchemaLocation="http://sumo.dlr.de/xsd/polyconvertConfiguration.xsd">

    <input>
        <net-file value="berrechid.net.xml"/>
        <osm-files value="berrechid.osm.xml"/>
    </input>

    <output>
        <output-file value="berrechid.poly.xml"/>
    </output>

    <processing>
        <poi-layer-offset value="5"/>
    </processing>

</configuration>
-->

<additional xmlns:xsi="http://www.w3.org/2001/XMLSchema-instance" xsi:noNamespaceSchemaLocation="http://sumo.dlr.de/xsd/additional_file.xsd">
    <location netOffset="-630942.14,-3680171.47" convBoundary="-642.54,-270.06,3547.39,3702.86" origBoundary="-7.601116,33.249805,-7.556115,33.285940" projParameter="+proj=utm +zone=29 +ellps=WGS84 +datum=WGS84 +units=m +no_defs"/>

    <poly id="119961410" type="residential" color="235,235,227" fill="1" layer="-3.00" shape="1754.996329,2519.832908 2116.696712,2943.011655 1763.409473,3126.423597 1865.868799,3374.164061 1899.230221,3454.833628 2298.740592,3307.215654 2471.069472,3501.425065 2526.911787,3564.362220 2643.538119,3041.063624 2307.601177,2655.978420 2330.107136,2632.853775 2401.017898,2559.977866 2597.039435,2346.457772 2903.866875,2049.361163 2999.744130,1923.013188 3003.553120,1743.851352 2922.497526,1594.606436 2745.246304,1557.246203 2723.817943,1360.015967 2857.873244,1362.757302 2805.806839,1107.703808 3125.705493,1046.388012 3120.650321,1006.893446 3097.369097,824.863273 2996.844611,852.800726 2619.144821,957.753661 2533.920398,757.608069 2814.862610,681.463411 2707.716026,331.367135 2464.614162,417.571348 2494.887358,627.442246 2435.594799,638.151708 2058.579792,564.809855 1957.659388,500.384675 2198.960485,413.832937 2421.766112,341.228605 2126.870972,122.945151 2085.684210,92.461440 1853.014968,-75.756301 1628.363992,-122.457853 1551.755275,78.534447 1592.277844,317.984722 1217.412782,758.732566 1257.042497,343.533493 1093.634676,304.307908 970.445764,616.535768 946.025129,721.724797 635.155258,739.451393 646.396522,592.352369 435.631483,543.492427 423.654664,24.104673 152.509296,43.537277 216.304789,1247.709963 -7.979233,752.666228 -343.351758,455.532016 -642.544873,731.615518 -562.861534,861.269162 -361.878770,800.187235 -358.050951,864.847808 -345.048355,1084.434172 -122.052837,1202.764545 195.299116,1293.094718 121.646721,2048.462574 -197.604243,3369.523461 -212.853538,3457.593603 -140.007644,3510.329980 -76.230256,3528.843510 -84.383481,3497.948282 -32.336172,3477.290042 9.078208,3559.358426 110.250495,3567.608823 398.264875,3702.856157 419.872372,3470.704084 429.414713,3328.405630 687.591301,3242.691127 855.979884,3290.186280 949.788793,3443.834048 1160.123505,3324.202116 1302.491368,3257.502355 1356.086273,3273.358290 1388.331768,3264.592555 1518.103003,3194.896442 1525.325711,3096.183506 1806.132059,2928.918187 1583.586483,2663.871148 1754.996329,2519.832908"/>
    <poly id="295160536" type="building" color="255,230,230" fill="1" layer="-1.00" shape="1115.386729,1533.217673 1123.651813,1536.534870 1123.354533,1540.589734 1159.020873,1555.413304 1174.368274,1518.803311 1168.280686,1506.754630 1154.640660,1502.022521 1154.718662,1496.279016 1142.289513,1491.563370 1138.652239,1493.909394 1132.305008,1491.372340 1115.386729,1533.217673"/>
    <poly id="295160537" type="building" color="255,230,230" fill="1" layer="-1.00" shape="1210.055697,1957.849269 1211.165494,1948.848258 1219.852121,1949.908945 1219.371534,1953.739520 1226.672305,1954.637211 1227.038836,1951.659008 1234.088577,1952.520023 1233.010470,1961.244215 1228.806648,1960.732395 1228.441172,1963.632983 1214.434694,1961.923319 1214.864037,1958.435834 1210.055697,1957.849269"/>
    <poly id="295160538" type="building" color="255,230,230" fill="1" layer="-1.00" shape="1214.145047,1928.394607 1212.616355,1938.742893 1236.845256,1942.299329 1238.373974,1931.951046 1214.145047,1928.394607"/>
    <poly id="295160539" type="building" color="255,230,230" fill="1" layer="-1.00" shape="1133.787044,1917.344226 1153.526959,1913.952661 1152.126641,1905.937823 1172.174709,1902.495031 1170.516216,1892.913008 1189.714614,1889.613966 1191.434222,1899.496251 1219.092697,1894.737449 1206.251394,1875.144535 1188.840816,1879.188678 1185.292346,1864.036025 1130.763329,1899.903112 1133.787044,1917.344226"/>
    <poly id="295160540" type="building" color="255,230,230" fill="1" layer="-1.00" shape="1227.649753,2014.325269 1226.609155,2024.402940 1259.504166,2027.766708 1260.544798,2017.689040 1227.649753,2014.325269"/>
    <poly id="295160541" type="building" color="255,230,230" fill="1" layer="-1.00" shape="1238.560264,1963.482176 1281.265536,1970.239784 1283.007803,1959.262284 1275.571095,1958.085455 1274.664200,1963.806607 1271.224745,1963.260801 1272.018781,1958.303318 1250.926392,1954.966864 1249.989911,1960.809605 1244.328740,1959.912002 1245.031550,1955.496683 1239.955963,1954.695762 1238.560264,1963.482176"/>
    <poly id="295160542" type="building" color="255,230,230" fill="1" layer="-1.00" shape="1243.146336,1934.500050 1241.854114,1943.897814 1282.907611,1949.501804 1284.230378,1939.915930 1263.466479,1937.082963 1263.022861,1940.248645 1256.141822,1939.312273 1256.554934,1936.334705 1243.146336,1934.500050"/>
    <poly id="295160543" type="building" color="255,230,230" fill="1" layer="-1.00" shape="1320.665406,1957.001881 1319.108323,1968.059524 1285.281318,1963.341012 1286.704313,1953.235275 1294.524111,1954.328602 1293.935761,1958.545857 1298.510641,1959.173649 1299.233042,1954.004486 1320.665406,1957.001881"/>
    <poly id="295160544" type="building" color="255,230,230" fill="1" layer="-1.00" shape="876.593463,2035.555170 883.977436,2033.747800 910.957480,2048.752220 915.249714,2038.618809 912.709841,2036.998517 915.006400,2033.203644 910.056236,2020.405335 924.806339,2017.422533 925.379851,2022.531658 936.176019,2028.089924 927.634959,2045.152342 924.127171,2044.151046 919.869509,2051.734248 926.511577,2057.236179 922.869983,2066.103071 912.552655,2072.639290 898.265879,2064.815747 899.028660,2055.277694 895.212913,2053.629020 888.741550,2059.585281 872.874360,2050.143409 876.464060,2045.101808 876.593463,2035.555170"/>
    <poly id="295160545" type="building" color="255,230,230" fill="1" layer="-1.00" shape="873.146083,2030.096577 882.140800,2027.667825 890.533457,1998.182685 904.846045,2004.110190 908.519599,2016.247973 920.417509,2011.319033 919.201170,2006.212282 925.776920,1993.248646 907.318796,1986.632782 904.050694,1992.000339 896.423359,1988.392531 912.949992,1948.515556 922.188109,1951.502003 925.798775,1944.231635 916.895367,1940.606510 922.580799,1922.540541 932.777555,1924.907872 933.528187,1916.955511 926.534761,1913.999491 945.053737,1868.737714 954.925291,1871.732779 950.646034,1880.901531 965.301316,1884.926304 971.286255,1868.139760 965.230664,1866.782288 965.942375,1861.701682 928.994828,1850.055290 923.018523,1866.209851 932.869180,1871.433677 929.865993,1880.619740 918.709078,1877.607273 913.067371,1893.134252 922.257440,1898.981236 918.967654,1905.945440 907.494233,1902.917603 903.137320,1917.818792 913.629865,1922.419180 908.690702,1932.854338 899.790890,1928.275548 892.230521,1943.776527 902.684260,1951.237568 899.719904,1957.562976 887.282823,1954.843703 881.623323,1971.002580 891.165031,1974.957934 889.477471,1981.932776 876.705708,1979.852191 872.682832,1993.482583 881.222032,2000.607137 877.945382,2006.606710 867.097462,2004.862731 862.059053,2022.626980 873.146083,2030.096577"/>
    <poly id="302966261" type="landuse" color="194,194,130" fill="1" layer="-3.00" shape="2921.235187,-270.056235 2509.655415,-73.716386 2126.870972,122.945151 2421.766112,341.228605 2198.960485,413.832937 1957.659388,500.384675 2058.579792,564.809855 2435.594799,638.151708 2494.887358,627.442246 2464.614162,417.571348 2707.716026,331.367135 2814.862610,681.463411 2852.667220,724.479962 2973.175090,756.990211 2996.844611,852.800726 3097.369097,824.863273 3120.650321,1006.893446 3283.926771,976.673366 3253.493458,936.451537 3240.462414,866.626657 3204.953147,832.312507 3194.482231,794.362371 3231.061757,751.083499 3324.828794,765.319091 3307.178246,820.292591 3332.839023,837.059906 3319.239709,888.107994 3422.299971,953.209601 3441.490486,938.547525 3408.593775,859.498347 3436.669191,846.456106 3429.161401,817.995281 3474.232607,804.189793 3423.608662,705.987248 3210.233066,304.069609 2921.235187,-270.056235"/>
    <poly id="425494726" type="landuse" color="194,194,130" fill="1" layer="-3.00" shape="1078.051684,466.685052 1080.293569,467.635930 1082.258983,469.048831 1083.855521,470.867053 1085.010015,472.989794 1085.667923,475.316504 1085.784325,477.724586 1085.351408,480.103034 1084.408091,482.330388 1082.983975,484.285062 1081.164105,485.879490 1079.033524,487.026107 1076.695305,487.681954 1074.271303,487.793233 1071.882468,487.372676 1069.649902,486.421927 1067.675175,485.008901 1066.078636,483.190681 1064.924139,481.067943 1064.266226,478.741234 1064.149820,476.333153 1064.582731,473.954704 1065.526045,471.727348 1066.950158,469.772672 1068.770029,468.178242 1070.909928,467.031748 1073.238836,466.375774 1075.662844,466.264494 1078.051684,466.685052"/>
    <poly id="425494728" type="landuse" color="194,194,130" fill="1" layer="-3.00" shape="768.328970,2110.952241 763.740907,2107.862563 759.957296,2103.841143 757.162014,2099.067907 755.509947,2093.800019 755.072004,2088.304597 755.881840,2082.848253 757.889133,2077.707552 760.987976,2073.136129 765.035506,2069.364936 769.833426,2066.590908 775.118989,2064.954655 780.639812,2064.519299 786.125187,2065.325533 791.296441,2067.314132 795.884515,2070.403822 799.667976,2074.436344 802.453931,2079.209467 804.115440,2084.466401 804.543892,2089.972788 803.743343,2095.429255 801.736028,2100.569947 798.627860,2105.141232 794.580480,2108.901323 789.791887,2111.675464 784.506196,2113.322797 778.976086,2113.758024 773.490738,2112.951793 768.328970,2110.952241"/>
    <poly id="425494733" type="landuse" color="194,194,130" fill="1" layer="-3.00" shape="1198.351848,1034.356716 1195.550624,1032.754993 1193.176710,1030.560221 1191.358707,1027.907224 1190.169631,1024.907895 1189.681744,1021.729560 1189.921034,1018.516744 1190.875777,1015.446723 1192.488275,1012.651794 1194.681750,1010.297261 1197.352381,1008.481525 1200.359086,1007.302478 1203.552070,1006.813535 1206.781689,1007.057024 1209.871407,1007.997276 1212.672486,1009.610091 1215.046552,1011.793780 1216.873867,1014.446907 1218.053621,1017.446114 1218.541499,1020.624449 1218.302200,1023.837266 1217.356764,1026.907411 1215.744261,1029.702336 1213.541469,1032.056737 1210.880157,1033.872595 1207.864143,1035.051513 1204.671168,1035.540454 1201.441559,1035.296966 1198.351848,1034.356716"/>
    <poly id="425494734" type="landuse" color="194,194,130" fill="1" layer="-3.00" shape="810.491920,1487.218616 807.690923,1485.605914 805.316891,1483.422322 803.489564,1480.769271 802.309749,1477.770114 801.821767,1474.591801 802.060926,1471.378977 803.006194,1468.308795 804.618511,1465.513806 806.821107,1463.159317 809.482227,1461.343353 812.498057,1460.164317 815.690869,1459.675252 818.911026,1459.918490 822.009945,1460.858749 824.811098,1462.460368 827.184981,1464.655052 829.002991,1467.307982 830.192114,1470.307267 830.680086,1473.485583 830.440918,1476.698406 829.486327,1479.768459 827.874005,1482.563445 825.680722,1484.918055 823.010291,1486.733889 820.003782,1487.913047 816.801665,1488.401984 813.581517,1488.158746 810.491920,1487.218616"/>
    <poly id="451799188" type="amenity" color="237,199,199" fill="1" layer="-1.00" shape="859.403726,896.469493 968.721038,943.707926 1011.527572,845.799265 1008.696800,833.318033 1030.658792,761.742450 919.178669,763.957088 859.403726,896.469493"/>
    <poly id="482918227" type="school" color="237,199,199" fill="1" layer="-2.00" shape="1645.714634,1880.549193 1591.501174,1935.514920 1495.746694,1847.664759 1541.785595,1806.005950 1587.189233,1847.912322 1625.530948,1858.382539 1645.714634,1880.549193"/>
    <poly id="482918228" type="landuse" color="194,194,130" fill="1" layer="-3.00" shape="1383.621162,648.307364 1379.480251,621.890380 1353.912111,591.189667 1392.702937,532.031408 1448.952730,475.084824 1458.955146,474.721881 1435.409441,515.190129 1414.771175,563.172563 1383.621162,648.307364"/>
    <poly id="482918229" type="college" color="237,199,199" fill="1" layer="-2.00" shape="1721.151110,1003.112053 1624.194471,856.534759 1483.051699,944.163486 1584.964175,1094.289082 1721.151110,1003.112053"/>
    <poly id="482918230" type="tourism" color="207,245,201" fill="1" layer="-2.00" shape="1006.940592,1593.305859 964.073982,1585.260927 1016.325715,1444.706730 1058.725987,1459.698894 1006.940592,1593.305859"/>
    <poly id="482918238" type="tourism" color="207,245,201" fill="1" layer="-2.00" shape="992.484706,1627.432956 952.621568,1618.441810 778.877443,2048.825424 794.849560,2050.527821 818.128100,2065.770175 992.484706,1627.432956"/>
    <poly id="482918241" type="tourism" color="207,245,201" fill="1" layer="-2.00" shape="1213.845008,1078.294603 1212.024690,1064.840020 1193.669624,1054.631970 1176.699194,1052.915433 1167.656137,1056.773892 1041.954424,1379.524323 1087.233193,1394.555657 1213.845008,1078.294603"/>
    <poly id="482918256" type="amenity" color="237,199,199" fill="1" layer="-1.00" shape="305.379304,1844.957530 205.221385,1823.711205 159.514509,1840.506024 192.547390,1911.083577 267.770821,1928.511157 305.379304,1844.957530"/>
    <poly id="482918261" type="college" color="237,199,199" fill="1" layer="-2.00" shape="867.749330,1225.319581 797.759988,1189.793257 747.788335,1263.241300 874.937125,1321.909973 893.188021,1284.107951 847.499058,1262.850582 867.749330,1225.319581"/>
    <poly id="482918264" type="school" color="237,199,199" fill="1" layer="-2.00" shape="319.637766,1825.254761 262.312373,1795.880506 251.586633,1757.431472 151.018915,1785.175162 142.878222,1814.786222 159.514509,1840.506024 205.221385,1823.711205 305.379304,1844.957530 319.637766,1825.254761"/>
    <poly id="482918265" type="tourism" color="207,245,201" fill="1" layer="-2.00" shape="1309.168515,1639.197375 1080.333978,1598.782117 1102.001435,1548.839044 1202.461049,1585.014556 1231.951795,1511.301486 1131.532150,1472.131975 1150.687695,1422.653934 1262.423250,1401.792548 1319.325301,1591.083320 1309.168515,1639.197375"/>
    <poly id="482918267" type="tourism" color="207,245,201" fill="1" layer="-2.00" shape="599.483379,1567.392511 591.951437,1551.875739 505.533909,1511.904055 465.994489,1534.747210 433.537673,1587.784051 438.690545,1613.227246 554.516467,1677.461314 599.483379,1567.392511"/>
    <poly id="482918268" type="college" color="237,199,199" fill="1" layer="-2.00" shape="363.157617,1785.552778 361.916952,1784.293964 282.488358,1930.694817 509.957262,2016.585899 481.131626,1911.995929 466.769124,1902.841241 472.439194,1889.987075 455.961258,1833.305940 441.055201,1827.138216 441.585855,1824.406189 363.157617,1785.552778"/>
    <poly id="482918269" type="tourism" color="207,245,201" fill="1" layer="-2.00" shape="1237.405883,999.521620 1226.400682,1000.359098 1208.532275,990.667772 1201.313137,970.674454 1343.747463,603.494315 1357.549923,617.610885 1365.238159,640.105914 1366.868999,667.486847 1346.928114,736.860196 1249.049398,988.734108 1237.405883,999.521620"/>
    <poly id="482918279" type="amenity" color="237,199,199" fill="1" layer="-1.00" shape="1947.953196,1937.140858 1919.295053,1905.941452 1900.702247,1922.854690 1929.351081,1954.053914 1947.953196,1937.140858"/>
    <poly id="482918289" type="amenity" color="237,199,199" fill="1" layer="-1.00" shape="417.048033,677.051524 414.893750,637.176643 377.881373,638.917162 379.102438,678.224940 417.048033,677.051524"/>
    <poly id="594709316" type="amenity" color="237,199,199" fill="1" layer="-1.00" shape="1191.362004,838.336782 1205.584815,840.016005 1207.935496,814.430303 1193.950757,813.741312 1191.362004,838.336782"/>
    <poly id="594709316#1" type="building" color="255,230,230" fill="1" layer="-1.00" shape="1191.362004,838.336782 1205.584815,840.016005 1207.935496,814.430303 1193.950757,813.741312 1191.362004,838.336782"/>
    <poly id="597085689" type="amenity" color="237,199,199" fill="1" layer="-1.00" shape="428.486561,1037.426286 434.248122,1035.762986 433.534170,1025.850111 419.982941,1029.648372 428.486561,1037.426286"/>
    <poly id="597085689#1" type="building" color="255,230,230" fill="1" layer="-1.00" shape="428.486561,1037.426286 434.248122,1035.762986 433.534170,1025.850111 419.982941,1029.648372 428.486561,1037.426286"/>
    <poly id="742341183" type="industrial" color="209,209,204" fill="1" layer="-3.00" shape="223.277485,497.632159 186.784570,498.127278 186.423605,821.479634 223.304422,829.440250 247.431938,819.318945 286.769211,792.978795 269.984805,629.587692 253.550039,550.772436 223.277485,497.632159"/>
    <poly id="742341209" type="building" color="255,230,230" fill="1" layer="-1.00" shape="823.386317,497.334345 715.739282,487.360157 712.086753,535.573775 816.749884,544.997406 823.386317,497.334345"/>
    <poly id="970706901" type="building" color="255,230,230" fill="1" layer="-1.00" shape="1425.396545,1454.423675 1432.825452,1454.147717 1432.476102,1444.905071 1425.056503,1445.181156 1425.396545,1454.423675"/>
    <poi id="1339097697" type="unknown" color="51,128,255" layer="4.00" x="1204.99" y="1688.21"/>
    <poi id="2907751395" type="amenity" color="237,199,199" layer="4.00" x="378.13" y="550.90"/>
    <poi id="4589166495" type="amenity" color="237,199,199" layer="4.00" x="411.23" y="749.56"/>
    <poi id="4614553189" type="amenity" color="237,199,199" layer="4.00" x="498.98" y="1131.67"/>
    <poi id="4723553589" type="shop" color="237,199,255" layer="4.00" x="725.25" y="1454.72"/>
    <poi id="8478498247" type="amenity" color="237,199,199" layer="4.00" x="1930.17" y="531.07"/>
    <poi id="8478517836" type="amenity" color="237,199,199" layer="4.00" x="1520.37" y="621.90"/>
    <poi id="8478531173" type="amenity" color="237,199,199" layer="4.00" x="1433.66" y="594.12"/>
    <poi id="8478537472" type="amenity" color="237,199,199" layer="4.00" x="1701.83" y="787.65"/>
    <poi id="8478537489" type="amenity" color="237,199,199" layer="4.00" x="1883.32" y="931.69"/>
    <poi id="8478540959" type="amenity" color="237,199,199" layer="4.00" x="1547.84" y="1105.16"/>
    <poi id="8478928801" type="amenity" color="237,199,199" layer="4.00" x="2001.66" y="1230.31"/>
    <poi id="8478929876" type="amenity" color="237,199,199" layer="4.00" x="1972.24" y="1096.51"/>
    <poi id="8478933297" type="amenity" color="237,199,199" layer="4.00" x="1919.45" y="1248.57"/>
    <poi id="8478937900" type="amenity" color="237,199,199" layer="4.00" x="1854.55" y="1490.24"/>
    <poi id="8478939888" type="amenity" color="237,199,199" layer="4.00" x="1532.71" y="1515.61"/>
    <poi id="8478942834" type="amenity" color="237,199,199" layer="4.00" x="1652.37" y="1308.79"/>
    <poi id="8478955128" type="amenity" color="237,199,199" layer="4.00" x="1197.77" y="1290.63"/>
    <poi id="8478957118" type="amenity" color="237,199,199" layer="4.00" x="1339.08" y="1214.92"/>
    <poi id="8478976582" type="amenity" color="237,199,199" layer="4.00" x="1690.69" y="1587.32"/>
    <poi id="8478981100" type="amenity" color="237,199,199" layer="4.00" x="1335.12" y="1428.98"/>
    <poi id="8478984860" type="amenity" color="237,199,199" layer="4.00" x="1811.95" y="1787.67"/>
    <poi id="8478991287" type="amenity" color="237,199,199" layer="4.00" x="1572.64" y="1681.25"/>
    <poi id="8479000834" type="amenity" color="237,199,199" layer="4.00" x="1945.91" y="1675.96"/>
    <poi id="8479005395" type="amenity" color="237,199,199" layer="4.00" x="1490.22" y="1862.93"/>
    <poi id="8479018048" type="amenity" color="237,199,199" layer="4.00" x="1355.99" y="1639.76"/>
    <poi id="8479036010" type="amenity" color="237,199,199" layer="4.00" x="1869.42" y="2227.71"/>
    <poi id="8479050851" type="amenity" color="237,199,199" layer="4.00" x="1744.80" y="2053.38"/>
    <poi id="8479110988" type="amenity" color="237,199,199" layer="4.00" x="1379.33" y="2140.24"/>
    <poi id="8479238599" type="amenity" color="237,199,199" layer="4.00" x="755.35" y="2223.33"/>
    <poi id="8479242392" type="amenity" color="237,199,199" layer="4.00" x="541.20" y="1209.61"/>
    <poi id="8479249709" type="amenity" color="237,199,199" layer="4.00" x="276.52" y="886.68"/>
    <poi id="8479272569" type="amenity" color="237,199,199" layer="4.00" x="776.57" y="1962.59"/>
    <poi id="8479272579" type="amenity" color="237,199,199" layer="4.00" x="455.93" y="1051.13"/>
    <poi id="8479273954" type="amenity" color="237,199,199" layer="4.00" x="263.04" y="1303.80"/>
    <poi id="8479277071" type="amenity" color="237,199,199" layer="4.00" x="424.97" y="821.40"/>
    <poi id="8479288614" type="amenity" color="237,199,199" layer="4.00" x="697.62" y="1293.51"/>
    <poi id="8479292917" type="amenity" color="237,199,199" layer="4.00" x="777.14" y="1488.91"/>
    <poi id="8479293876" type="amenity" color="237,199,199" layer="4.00" x="412.94" y="590.18"/>
    <poi id="8479317668" type="amenity" color="237,199,199" layer="4.00" x="556.99" y="2065.88"/>
    <poi id="8479319158" type="amenity" color="237,199,199" layer="4.00" x="566.49" y="1699.74"/>
    <poi id="8479328236" type="amenity" color="237,199,199" layer="4.00" x="441.73" y="2170.02"/>
    <poi id="8479364010" type="amenity" color="237,199,199" layer="4.00" x="748.23" y="1965.54"/>
    <poi id="8479398319" type="amenity" color="237,199,199" layer="4.00" x="922.60" y="1600.58"/>
    <poi id="8479414743" type="amenity" color="237,199,199" layer="4.00" x="1122.75" y="1714.80"/>
    <poi id="8479452981" type="amenity" color="237,199,199" layer="4.00" x="929.01" y="1867.17"/>
    <poi id="8525030446" type="amenity" color="237,199,199" layer="4.00" x="735.27" y="1654.87"/>
    <poi id="8863729317" type="shop" color="237,199,255" layer="4.00" x="1307.73" y="660.65"/>
    <poi id="8863729417" type="shop" color="237,199,255" layer="4.00" x="1767.59" y="1455.42"/>
</additional>
