<?xml version="1.0" encoding="UTF-8"?>

<!-- generated on 2022-01-01 10:39:00 by Eclipse SUMO netconvert Version 1.11.0
<configuration xmlns:xsi="http://www.w3.org/2001/XMLSchema-instance" xsi:noNamespaceSchemaLocation="http://sumo.dlr.de/xsd/netconvertConfiguration.xsd">

    <input>
        <sumo-net-file value="berrechid.net.xml"/>
    </input>

    <output>
        <plain-output-prefix value="berrechid"/>
    </output>

    <processing>
        <geometry.min-radius.fix.railways value="false"/>
        <geometry.max-grade.fix value="false"/>
        <offset.disable-normalization value="true"/>
        <lefthand value="false"/>
    </processing>

    <junctions>
        <no-internal-links value="true"/>
        <no-turnarounds value="true"/>
        <junctions.corner-detail value="5"/>
        <junctions.limit-turn-speed value="5.5"/>
        <rectangular-lane-cut value="false"/>
    </junctions>

    <pedestrian>
        <walkingareas value="false"/>
    </pedestrian>

    <report>
        <aggregate-warnings value="5"/>
    </report>

</configuration>
-->

<nodes version="1.9" xmlns:xsi="http://www.w3.org/2001/XMLSchema-instance" xsi:noNamespaceSchemaLocation="http://sumo.dlr.de/xsd/nodes_file.xsd">
    <location netOffset="-630942.14,-3680171.47" convBoundary="0.00,0.00,3547.39,3574.00" origBoundary="-7.594146,33.252481,-7.556115,33.284645" projParameter="+proj=utm +zone=29 +ellps=WGS84 +datum=WGS84 +units=m +no_defs"/>

    <node id="1249801032" x="3547.39" y="936.33" type="priority"/>
    <node id="1339097312" x="621.09" y="1716.29" type="priority"/>
    <node id="1339097313" x="1727.65" y="1296.51" type="priority"/>
    <node id="1339097319" x="1642.69" y="1432.58" type="priority"/>
    <node id="1339097320" x="1692.43" y="2042.21" type="priority"/>
    <node id="1339097321" x="795.32" y="1474.21" type="priority"/>
    <node id="1339097324" x="673.95" y="1582.77" type="priority"/>
    <node id="1339097326" x="701.09" y="2036.83" type="priority"/>
    <node id="1339097329" x="1345.02" y="1470.87" type="priority"/>
    <node id="1339097330" x="1588.69" y="1558.50" type="priority"/>
    <node id="1339097331" x="888.62" y="1741.71" type="priority"/>
    <node id="1339097335" x="1538.20" y="1727.07" type="priority"/>
    <node id="1339097336" x="1564.42" y="1524.75" type="priority"/>
    <node id="1339097337" x="1685.45" y="1440.66" type="priority"/>
    <node id="1339097340" x="1439.37" y="1876.46" type="priority"/>
    <node id="1339097341" x="1827.31" y="1635.51" type="priority"/>
    <node id="1339097346" x="1433.43" y="1598.17" type="priority"/>
    <node id="1339097349" x="638.04" y="1673.49" type="priority"/>
    <node id="1339097351" x="1832.34" y="1421.61" type="priority"/>
    <node id="1339097355" x="604.97" y="1550.68" type="priority"/>
    <node id="1339097357" x="1688.22" y="1549.72" type="priority"/>
    <node id="1339097358" x="1336.87" y="1527.71" type="priority"/>
    <node id="1339097359" x="1561.81" y="2051.81" type="priority"/>
    <node id="1339097363" x="609.80" y="1439.00" type="priority"/>
    <node id="1339097364" x="470.44" y="1520.34" type="priority"/>
    <node id="1339097366" x="1294.79" y="1493.13" type="priority"/>
    <node id="1339097368" x="1614.70" y="1631.35" type="priority"/>
    <node id="1339097370" x="1631.16" y="1513.49" type="priority"/>
    <node id="1339097371" x="847.92" y="1406.39" type="priority"/>
    <node id="1339097372" x="827.21" y="1706.97" type="priority"/>
    <node id="1339097377" x="425.01" y="1610.02" type="priority"/>
    <node id="1339097382" x="442.70" y="1069.85" type="priority"/>
    <node id="1339097383" x="1622.76" y="1572.05" type="priority"/>
    <node id="1339097387" x="589.74" y="1593.47" type="priority"/>
    <node id="1339097389" x="1811.42" y="1278.88" type="priority"/>
    <node id="1339097392" x="1719.02" y="1371.13" type="priority"/>
    <node id="1339097398" x="1733.96" y="1736.69" type="priority"/>
    <node id="1339097399" x="1437.45" y="1569.00" type="priority"/>
    <node id="1339097401" x="1819.96" y="1930.95" type="priority"/>
    <node id="1339097402" x="1831.14" y="1602.02" type="priority"/>
    <node id="1339097404" x="1356.59" y="1392.54" type="priority"/>
    <node id="1339097407" x="678.60" y="2091.73" type="priority"/>
    <node id="1339097409" x="1742.74" y="1556.87" type="priority"/>
    <node id="1339097417" x="1559.55" y="1553.74" type="priority"/>
    <node id="1339097419" x="1563.53" y="2389.12" type="priority"/>
    <node id="1339097420" x="660.11" y="1413.46" type="priority"/>
    <node id="1339097421" x="532.95" y="1944.80" type="priority"/>
    <node id="1339097422" x="1768.48" y="1627.58" type="priority"/>
    <node id="1339097424" x="878.30" y="1348.11" type="priority"/>
    <node id="1339097425" x="1416.11" y="1499.67" type="priority"/>
    <node id="1339097428" x="1715.20" y="1403.84" type="priority"/>
    <node id="1339097431" x="1034.41" y="1392.37" type="priority"/>
    <node id="1339097432" x="555.60" y="1681.20" type="priority"/>
    <node id="1339097437" x="1840.74" y="1840.62" type="priority"/>
    <node id="1339097440" x="847.39" y="1658.42" type="priority"/>
    <node id="1339097444" x="1328.30" y="1579.21" type="priority"/>
    <node id="1339097447" x="992.64" y="1478.27" type="priority"/>
    <node id="1339097449" x="1865.60" y="1465.34" type="priority"/>
    <node id="1339097452" x="1713.12" y="1300.20" type="priority"/>
    <node id="1339097453" x="1459.19" y="2230.09" type="priority"/>
    <node id="1339097455" x="1699.80" y="1643.76" type="priority"/>
    <node id="1339097457" x="1417.79" y="1482.09" type="priority"/>
    <node id="1339097462" x="808.25" y="1757.68" type="priority"/>
    <node id="1339097463" x="1709.71" y="1444.06" type="priority"/>
    <node id="1339097469" x="1730.71" y="1756.07" type="priority"/>
    <node id="1339097471" x="1834.60" y="1873.79" type="priority"/>
    <node id="1339097472" x="558.61" y="1360.95" type="priority"/>
    <node id="1339097475" x="1412.79" y="1382.65" type="priority"/>
    <node id="1339097478" x="1725.70" y="1681.44" type="priority"/>
    <node id="1339097481" x="572.39" y="1640.64" type="priority"/>
    <node id="1339097485" x="1941.19" y="2325.33" type="priority"/>
    <node id="1339097492" x="823.35" y="1456.20" type="priority"/>
    <node id="1339097493" x="743.59" y="1666.09" type="priority"/>
    <node id="1339097494" x="1840.10" y="1544.51" type="priority">
        <param key="buffer_stop" value="true"/>
    </node>
    <node id="1339097495" x="495.56" y="1926.98" type="priority"/>
    <node id="1339097498" x="847.86" y="1844.95" type="priority"/>
    <node id="1339097502" x="508.28" y="1337.19" type="priority"/>
    <node id="1339097505" x="1441.82" y="1540.76" type="priority"/>
    <node id="1339097507" x="769.59" y="1858.57" type="priority"/>
    <node id="1339097508" x="577.62" y="1322.09" type="priority"/>
    <node id="1339097511" x="1835.74" y="1570.45" type="priority"/>
    <node id="1339097514" x="965.20" y="1548.71" type="priority"/>
    <node id="1339097516" x="1713.91" y="1850.45" type="priority"/>
    <node id="1339097517" x="1554.84" y="1586.55" type="priority"/>
    <node id="1339097519" x="1652.21" y="1354.13" type="priority"/>
    <node id="1339097520" x="736.01" y="1448.87" type="priority"/>
    <node id="1339097521" x="406.37" y="1673.48" type="priority"/>
    <node id="1339097522" x="708.01" y="1266.43" type="priority"/>
    <node id="1339097526" x="832.54" y="1487.04" type="priority"/>
    <node id="1339097527" x="870.63" y="1787.32" type="priority"/>
    <node id="1339097528" x="788.63" y="1808.96" type="priority"/>
    <node id="1339097531" x="1995.72" y="1243.59" type="priority"/>
    <node id="1339097533" x="584.91" y="1374.34" type="priority"/>
    <node id="1339097535" x="563.31" y="1868.70" type="priority"/>
    <node id="1339097536" x="1362.52" y="1585.02" type="priority"/>
    <node id="1339097540" x="2135.19" y="1212.85" type="traffic_light" tl="1339097540"/>
    <node id="1339097543" x="1943.18" y="1401.99" type="priority"/>
    <node id="1339097547" x="1630.69" y="1851.24" type="priority"/>
    <node id="1339097549" x="729.49" y="1959.86" type="priority"/>
    <node id="1339097550" x="1812.73" y="271.72" type="priority"/>
    <node id="1339097551" x="1679.05" y="1579.49" type="priority"/>
    <node id="1339097554" x="1464.06" y="1945.40" type="priority"/>
    <node id="1339097555" x="1836.75" y="1386.54" type="priority"/>
    <node id="1339097560" x="1961.38" y="1506.01" type="priority"/>
    <node id="1339097561" x="1220.12" y="1067.06" type="priority"/>
    <node id="1339097563" x="481.94" y="1880.72" type="priority"/>
    <node id="1339097564" x="1709.18" y="1876.87" type="priority"/>
    <node id="1339097568" x="829.22" y="1892.82" type="priority"/>
    <node id="1339097569" x="1484.49" y="1839.43" type="priority"/>
    <node id="1339097571" x="1970.62" y="1437.98" type="priority"/>
    <node id="1339097572" x="1818.13" y="1695.64" type="priority"/>
    <node id="1339097573" x="2067.91" y="864.54" type="priority"/>
    <node id="1339097574" x="1266.98" y="1389.29" type="priority"/>
    <node id="1339097576" x="723.42" y="1716.06" type="priority"/>
    <node id="1339097579" x="1827.44" y="1459.22" type="priority"/>
    <node id="1339097580" x="666.81" y="1864.76" type="priority"/>
    <node id="1339097581" x="536.80" y="1731.93" type="priority"/>
    <node id="1339097585" x="1342.47" y="2043.72" type="priority"/>
    <node id="1339097590" x="1856.17" y="1701.85" type="priority"/>
    <node id="1339097592" x="1964.31" y="1478.88" type="priority"/>
    <node id="1339097594" x="1738.65" y="1915.07" type="priority"/>
    <node id="1339097597" x="619.13" y="1990.58" type="priority"/>
    <node id="1339097599" x="822.44" y="1494.54" type="priority"/>
    <node id="1339097605" x="658.11" y="1624.86" type="priority"/>
    <node id="1339097611" x="1359.43" y="1370.95" type="traffic_light" tl="1339097611"/>
    <node id="1339097612" x="695.66" y="1533.63" type="priority"/>
    <node id="1339097614" x="416.73" y="10.75" type="priority"/>
    <node id="1339097617" x="686.00" y="1812.92" type="priority"/>
    <node id="1339097622" x="777.34" y="1572.66" type="priority"/>
    <node id="1339097625" x="1535.34" y="1889.98" type="priority"/>
    <node id="1339097626" x="1726.38" y="1312.22" type="priority"/>
    <node id="1339097628" x="742.99" y="1283.21" type="priority"/>
    <node id="1339097629" x="1746.52" y="1854.93" type="priority"/>
    <node id="1339097638" x="675.78" y="1421.55" type="priority"/>
    <node id="1339097640" x="714.12" y="1340.75" type="priority"/>
    <node id="1339097642" x="465.18" y="1817.39" type="priority"/>
    <node id="1339097647" x="705.54" y="1762.95" type="priority"/>
    <node id="1339097650" x="603.04" y="1766.78" type="priority"/>
    <node id="1339097651" x="1764.02" y="1657.41" type="priority"/>
    <node id="1339097653" x="760.32" y="1620.31" type="priority"/>
    <node id="1339097659" x="657.00" y="1463.31" type="priority"/>
    <node id="1339097666" x="750.16" y="1910.04" type="priority"/>
    <node id="1339097672" x="1805.73" y="1321.14" type="priority"/>
    <node id="1339097674" x="1759.25" y="985.87" type="priority"/>
    <node id="1339097678" x="1704.62" y="1908.64" type="priority"/>
    <node id="1339097680" x="1823.33" y="1664.98" type="priority"/>
    <node id="1339097682" x="715.18" y="1494.21" type="priority"/>
    <node id="1339097684" x="597.46" y="1283.56" type="priority"/>
    <node id="1339097687" x="1987.15" y="1314.28" type="priority"/>
    <node id="1339097688" x="516.98" y="1784.14" type="priority"/>
    <node id="1339097690" x="683.13" y="1402.39" type="priority"/>
    <node id="1339097698" x="1078.12" y="2221.09" type="priority"/>
    <node id="1339097700" x="1543.36" y="1705.37" type="priority"/>
    <node id="1339097701" x="1416.47" y="1449.30" type="priority"/>
    <node id="1339097703" x="1799.39" y="1381.60" type="priority"/>
    <node id="1339097704" x="790.24" y="1994.01" type="priority"/>
    <node id="1339097708" x="1623.77" y="1564.05" type="priority"/>
    <node id="1339097711" x="497.17" y="1835.23" type="priority"/>
    <node id="1339097715" x="648.63" y="1915.99" type="priority"/>
    <node id="1339097720" x="1992.69" y="1279.28" type="priority"/>
    <node id="1339097721" x="1445.68" y="1504.66" type="priority"/>
    <node id="1339097723" x="1652.47" y="1369.61" type="priority"/>
    <node id="1339097725" x="633.36" y="1505.78" type="priority"/>
    <node id="1339097726" x="1690.63" y="1522.80" type="priority"/>
    <node id="1339097728" x="1376.84" y="1294.11" type="priority"/>
    <node id="1339097733" x="1349.14" y="1440.44" type="priority"/>
    <node id="1339097734" x="1593.62" y="2371.50" type="priority"/>
    <node id="1339097737" x="1730.11" y="1649.07" type="priority"/>
    <node id="1339097744" x="1764.69" y="1027.27" type="priority"/>
    <node id="1339097745" x="1324.44" y="1615.00" type="priority"/>
    <node id="1339097748" x="1768.42" y="1742.38" type="priority"/>
    <node id="1339097749" x="353.61" y="1275.78" type="priority"/>
    <node id="1339097750" x="1745.40" y="1531.93" type="priority"/>
    <node id="1339097751" x="582.94" y="1821.47" type="priority"/>
    <node id="1339097752" x="1391.34" y="1709.19" type="priority"/>
    <node id="1339097755" x="559.75" y="1470.00" type="priority"/>
    <node id="1339097756" x="1362.14" y="1901.67" type="priority"/>
    <node id="1339097758" x="1738.49" y="1588.70" type="priority"/>
    <node id="1339097759" x="1708.51" y="1584.37" type="priority"/>
    <node id="1339097760" x="657.05" y="1311.88" type="priority"/>
    <node id="1339097761" x="1337.32" y="2080.38" type="priority"/>
    <node id="1339097763" x="809.67" y="1943.29" type="priority"/>
    <node id="1340584852" x="1446.46" y="1829.95" type="priority"/>
    <node id="1340584855" x="1413.21" y="2029.77" type="priority"/>
    <node id="1340584860" x="1618.51" y="1739.70" type="priority"/>
    <node id="1340584862" x="1484.15" y="1970.36" type="priority"/>
    <node id="1340584864" x="1424.57" y="1712.57" type="priority"/>
    <node id="1340584868" x="1614.35" y="1771.99" type="priority"/>
    <node id="1340584873" x="1500.58" y="1721.68" type="priority"/>
    <node id="1340584892" x="1031.59" y="1622.65" type="priority"/>
    <node id="1340584897" x="1722.12" y="1803.68" type="priority"/>
    <node id="1340584899" x="1496.26" y="1773.30" type="priority"/>
    <node id="1340584911" x="1392.77" y="2005.12" type="priority"/>
    <node id="1340584914" x="1030.37" y="1661.06" type="priority"/>
    <node id="1340584927" x="1076.83" y="1691.87" type="priority"/>
    <node id="1340584937" x="1418.01" y="1762.41" type="priority"/>
    <node id="1340584939" x="1125.43" y="1636.33" type="priority"/>
    <node id="1340584962" x="1023.69" y="1678.42" type="priority"/>
    <node id="1340584977" x="1454.94" y="1780.70" type="priority"/>
    <node id="1340584985" x="1669.23" y="1794.90" type="priority"/>
    <node id="1340584997" x="1124.29" y="1727.06" type="priority">
        <param key="buffer_stop" value="true"/>
    </node>
    <node id="1340585004" x="1118.67" y="1678.12" type="priority"/>
    <node id="1340585006" x="1557.75" y="1808.59" type="priority"/>
    <node id="1340585011" x="1583.67" y="1834.44" type="priority"/>
    <node id="1340585015" x="1068.68" y="1739.76" type="priority"/>
    <node id="1340899587" x="2141.26" y="1974.48" type="priority"/>
    <node id="1340899588" x="1588.70" y="2278.73" type="priority"/>
    <node id="1340899591" x="1358.83" y="1929.73" type="priority"/>
    <node id="1340899600" x="1706.85" y="2181.84" type="priority"/>
    <node id="1340899629" x="1734.73" y="2087.74" type="priority"/>
    <node id="1340899633" x="1669.97" y="2136.28" type="priority"/>
    <node id="1340899653" x="1582.00" y="2170.09" type="priority"/>
    <node id="1340899664" x="1470.64" y="2072.71" type="priority"/>
    <node id="1340899686" x="1457.40" y="2136.13" type="priority"/>
    <node id="1340899688" x="1785.84" y="2398.00" type="priority"/>
    <node id="1340899692" x="1976.60" y="2053.85" type="priority"/>
    <node id="1340899695" x="1772.60" y="2131.78" type="priority"/>
    <node id="1340899710" x="1552.26" y="2156.53" type="priority"/>
    <node id="1340899711" x="1939.07" y="1981.54" type="priority"/>
    <node id="1340899712" x="1795.24" y="2061.34" type="priority"/>
    <node id="1340899718" x="1432.21" y="2103.41" type="priority"/>
    <node id="1340899727" x="1681.00" y="2239.08" type="priority"/>
    <node id="1340899730" x="1634.39" y="2088.68" type="priority"/>
    <node id="1340899732" x="1873.39" y="1994.68" type="priority">
        <param key="buffer_stop" value="true"/>
    </node>
    <node id="1340899736" x="1561.12" y="2271.89" type="priority"/>
    <node id="1340899737" x="1829.43" y="1902.44" type="priority"/>
    <node id="1340899755" x="1656.47" y="1953.44" type="priority"/>
    <node id="1340899759" x="1700.96" y="2557.25" type="priority"/>
    <node id="1340899763" x="1413.75" y="2081.05" type="priority"/>
    <node id="1340899766" x="2047.96" y="1985.89" type="priority"/>
    <node id="1340899767" x="1186.53" y="2169.25" type="priority"/>
    <node id="1340899776" x="1784.08" y="2222.33" type="priority"/>
    <node id="1340899777" x="1909.94" y="2069.80" type="priority"/>
    <node id="1340899783" x="1640.09" y="2184.37" type="priority"/>
    <node id="1340899784" x="1443.18" y="1916.71" type="priority"/>
    <node id="1340899791" x="1961.05" y="2124.60" type="priority"/>
    <node id="1340899794" x="1505.88" y="2099.05" type="priority"/>
    <node id="1340899807" x="1829.23" y="2097.61" type="priority"/>
    <node id="1340899812" x="1670.51" y="2188.21" type="priority"/>
    <node id="1340899827" x="1757.81" y="2186.60" type="priority"/>
    <node id="1340899843" x="2075.82" y="1816.21" type="priority"/>
    <node id="1340899849" x="1742.53" y="1887.08" type="priority"/>
    <node id="1340899853" x="1506.29" y="1862.42" type="priority"/>
    <node id="1340899857" x="1692.45" y="2191.99" type="priority"/>
    <node id="1340899861" x="1957.75" y="2004.80" type="priority"/>
    <node id="1340899879" x="1617.37" y="1916.38" type="priority"/>
    <node id="1340899881" x="1892.25" y="1974.84" type="priority"/>
    <node id="1340899886" x="2097.52" y="2184.91" type="priority"/>
    <node id="1340899888" x="1889.56" y="2373.37" type="priority"/>
    <node id="1340899889" x="1718.10" y="2070.36" type="priority"/>
    <node id="1340899893" x="1798.99" y="1864.85" type="priority"/>
    <node id="1340899898" x="1555.54" y="1911.15" type="priority"/>
    <node id="1340899905" x="2079.97" y="1796.20" type="priority"/>
    <node id="1340899923" x="1618.85" y="2284.56" type="priority"/>
    <node id="1340899929" x="1269.57" y="2342.47" type="priority"/>
    <node id="1340899938" x="1886.97" y="2046.11" type="priority"/>
    <node id="1340899961" x="1862.06" y="2067.91" type="priority"/>
    <node id="1340899962" x="1650.37" y="2291.21" type="priority"/>
    <node id="1340899963" x="2021.77" y="1905.14" type="priority"/>
    <node id="1340899965" x="2068.66" y="2007.00" type="priority"/>
    <node id="1340899987" x="1532.73" y="2129.50" type="priority"/>
    <node id="1340899989" x="2013.40" y="1950.41" type="priority"/>
    <node id="1340899993" x="1765.21" y="1760.75" type="priority"/>
    <node id="1340900014" x="1793.70" y="2233.91" type="priority"/>
    <node id="1340900019" x="1793.94" y="1896.11" type="priority"/>
    <node id="1340900023" x="1960.84" y="2036.76" type="priority"/>
    <node id="1340900028" x="1738.37" y="2159.30" type="priority"/>
    <node id="1340900030" x="1912.72" y="1953.39" type="priority"/>
    <node id="1340900034" x="2031.58" y="1968.63" type="priority"/>
    <node id="1340900036" x="1712.87" y="2291.35" type="priority"/>
    <node id="1340900038" x="1426.71" y="2266.21" type="priority"/>
    <node id="1340900040" x="1802.56" y="1951.07" type="priority"/>
    <node id="1340900061" x="1746.46" y="2152.38" type="priority"/>
    <node id="1340944380" x="736.41" y="1268.09" type="priority"/>
    <node id="1340944383" x="2013.93" y="2277.12" type="priority"/>
    <node id="1340944388" x="1063.68" y="1298.48" type="priority"/>
    <node id="1340944418" x="927.84" y="1301.44" type="priority"/>
    <node id="1340944419" x="1816.86" y="2184.42" type="priority"/>
    <node id="1340944431" x="482.79" y="1101.50" type="priority"/>
    <node id="1340944437" x="1773.56" y="2080.32" type="priority"/>
    <node id="1340944450" x="956.34" y="1243.42" type="priority"/>
    <node id="1340944453" x="1028.93" y="1281.09" type="priority"/>
    <node id="1340944460" x="0.00" y="1235.85" type="dead_end"/>
    <node id="1340944491" x="905.16" y="1348.02" type="priority"/>
    <node id="1340944501" x="1844.89" y="2158.88" type="priority"/>
    <node id="1340944517" x="1865.21" y="2139.95" type="priority"/>
    <node id="1340944531" x="514.96" y="1046.06" type="priority"/>
    <node id="1341775222" x="1915.79" y="1217.90" type="priority"/>
    <node id="1341775225" x="1954.15" y="1056.04" type="priority"/>
    <node id="1341775232" x="1970.51" y="1116.11" type="priority"/>
    <node id="1341775241" x="2131.24" y="1175.87" type="priority"/>
    <node id="1341775248" x="1986.81" y="1202.98" type="priority"/>
    <node id="1341775249" x="2070.00" y="1063.14" type="priority"/>
    <node id="1341775257" x="1911.02" y="1190.62" type="priority"/>
    <node id="1341775263" x="1847.03" y="1233.10" type="priority"/>
    <node id="1341775267" x="1900.98" y="1132.43" type="priority"/>
    <node id="1341775270" x="2106.61" y="1055.61" type="priority"/>
    <node id="1341775281" x="1981.14" y="1174.45" type="priority"/>
    <node id="1341775282" x="1858.07" y="1102.91" type="priority"/>
    <node id="1341775283" x="1840.19" y="1203.85" type="priority"/>
    <node id="1341775286" x="2031.25" y="877.61" type="priority"/>
    <node id="1341775290" x="2059.72" y="1003.84" type="priority"/>
    <node id="1341775292" x="1964.49" y="1086.23" type="priority"/>
    <node id="1341775301" x="2063.97" y="1033.10" type="priority"/>
    <node id="1342620773" x="565.60" y="2272.25" type="priority"/>
    <node id="1342620791" x="431.12" y="2225.17" type="priority"/>
    <node id="1342620844" x="465.01" y="2144.06" type="priority"/>
    <node id="1342620916" x="1323.15" y="1029.59" type="priority"/>
    <node id="1342620917" x="596.03" y="2193.02" type="priority"/>
    <node id="1342620944" x="1548.77" y="1082.97" type="priority"/>
    <node id="1342620978" x="1511.89" y="1074.13" type="priority"/>
    <node id="1342621111" x="525.33" y="2294.09" type="priority"/>
    <node id="1346248367" x="1944.61" y="900.72" type="priority"/>
    <node id="1346248371" x="2084.02" y="1153.21" type="priority"/>
    <node id="1346248377" x="1763.25" y="875.76" type="priority"/>
    <node id="1346248399" x="1931.84" y="832.07" type="priority"/>
    <node id="1346248474" x="1975.71" y="1143.02" type="priority"/>
    <node id="1346248480" x="1999.59" y="1106.20" type="priority"/>
    <node id="1346248482" x="2062.53" y="830.49" type="priority"/>
    <node id="1346248512" x="1832.24" y="891.71" type="priority"/>
    <node id="1346248515" x="1938.91" y="863.43" type="priority"/>
    <node id="1346248516" x="1999.85" y="1170.47" type="priority"/>
    <node id="1346248519" x="1832.71" y="2291.58" type="priority"/>
    <node id="1346248532" x="1351.94" y="2514.25" type="priority"/>
    <node id="1346248538" x="1853.63" y="923.07" type="priority"/>
    <node id="1346248546" x="1706.25" y="827.24" type="priority"/>
    <node id="1346248581" x="2041.10" y="916.05" type="priority"/>
    <node id="1346248595" x="2049.22" y="1159.47" type="priority"/>
    <node id="1346248598" x="2021.93" y="1134.01" type="priority"/>
    <node id="1346248601" x="1813.34" y="863.97" type="priority"/>
    <node id="1346248608" x="1845.80" y="855.95" type="priority"/>
    <node id="1346248612" x="2113.06" y="1086.28" type="priority"/>
    <node id="1366175802" x="306.96" y="1385.74" type="priority"/>
    <node id="1366175803" x="240.89" y="1403.12" type="priority"/>
    <node id="1366175807" x="250.33" y="1434.35" type="priority"/>
    <node id="1366175811" x="2045.43" y="1490.55" type="priority"/>
    <node id="1366175815" x="301.26" y="1474.82" type="priority">
        <param key="buffer_stop" value="true"/>
    </node>
    <node id="1366175816" x="336.28" y="1479.13" type="priority"/>
    <node id="1366175817" x="270.77" y="1502.51" type="priority"/>
    <node id="1366175818" x="236.38" y="1514.98" type="priority"/>
    <node id="1366175826" x="2078.41" y="1623.78" type="priority"/>
    <node id="1366175828" x="1866.41" y="1619.21" type="priority"/>
    <node id="1366175829" x="365.19" y="1570.28" type="priority"/>
    <node id="1366175831" x="1960.14" y="1633.39" type="priority"/>
    <node id="1366175835" x="1959.55" y="1661.98" type="priority"/>
    <node id="1366175837" x="1858.99" y="1674.55" type="priority"/>
    <node id="1366175839" x="1954.63" y="1691.27" type="priority"/>
    <node id="1366175840" x="1950.57" y="1718.33" type="priority"/>
    <node id="1366175841" x="1943.21" y="1759.46" type="priority"/>
    <node id="1366175842" x="1389.43" y="2185.50" type="priority"/>
    <node id="1366175843" x="1105.02" y="2207.87" type="priority"/>
    <node id="1366175844" x="1310.48" y="2223.01" type="priority"/>
    <node id="1366175848" x="1122.72" y="2238.09" type="priority"/>
    <node id="1366175851" x="1231.56" y="2264.36" type="priority"/>
    <node id="1366175852" x="1136.75" y="2265.61" type="priority"/>
    <node id="1366175856" x="1335.70" y="2275.01" type="priority"/>
    <node id="1366175863" x="1244.97" y="2290.82" type="priority"/>
    <node id="1366175867" x="933.82" y="2290.22" type="priority"/>
    <node id="1366175871" x="1348.24" y="2303.69" type="priority"/>
    <node id="1366175872" x="981.31" y="2300.78" type="priority"/>
    <node id="139402595-AddedOffRampNode" x="1191.91" y="528.79" type="priority"/>
    <node id="1528407775" x="1068.41" y="488.15" type="priority"/>
    <node id="1554281254" x="1224.99" y="1032.52" type="priority"/>
    <node id="1554281305" x="1220.46" y="1039.25" type="priority"/>
    <node id="1554281326" x="846.17" y="2144.97" type="priority"/>
    <node id="1554281330" x="835.96" y="2082.12" type="priority"/>
    <node id="1765707674" x="832.85" y="2041.94" type="priority"/>
    <node id="2140279293" x="348.63" y="1251.49" type="priority"/>
    <node id="2140279297" x="352.13" y="1268.03" type="priority"/>
    <node id="2140279299" x="350.39" y="1259.72" type="priority"/>
    <node id="2154197652" x="379.33" y="763.67" type="priority"/>
    <node id="2154197655" x="350.60" y="763.03" type="priority"/>
    <node id="2154197659" x="322.31" y="818.16" type="priority"/>
    <node id="2154197666" x="380.52" y="824.57" type="priority"/>
    <node id="2154197667" x="343.73" y="838.95" type="priority"/>
    <node id="2154197669" x="322.25" y="865.53" type="priority"/>
    <node id="2154197671" x="277.61" y="864.49" type="priority"/>
    <node id="2154197674" x="250.66" y="881.19" type="priority"/>
    <node id="2154197675" x="301.92" y="886.42" type="priority"/>
    <node id="2154197677" x="1331.28" y="909.45" type="priority"/>
    <node id="2154197679" x="407.95" y="901.85" type="priority"/>
    <node id="2154197681" x="1349.77" y="914.79" type="priority"/>
    <node id="2154197685" x="1387.26" y="923.70" type="priority"/>
    <node id="2154197689" x="1436.70" y="935.94" type="priority"/>
    <node id="2154197692" x="1478.09" y="946.64" type="priority"/>
    <node id="2154197693" x="1795.59" y="978.20" type="priority"/>
    <node id="2154197697" x="1409.40" y="1050.10" type="priority"/>
    <node id="2154197702" x="1805.17" y="1092.03" type="priority"/>
    <node id="2154197704" x="1569.96" y="1087.58" type="priority"/>
    <node id="2154197709" x="1650.00" y="1123.36" type="priority"/>
    <node id="2154197710" x="1746.17" y="1143.68" type="priority"/>
    <node id="2154197711" x="1415.73" y="1149.83" type="priority"/>
    <node id="2154197713" x="1465.50" y="1150.98" type="priority"/>
    <node id="2154197715" x="1386.37" y="1170.54" type="priority"/>
    <node id="2154197717" x="1486.71" y="1181.22" type="priority"/>
    <node id="2154197718" x="1440.74" y="1182.54" type="priority"/>
    <node id="2154197722" x="1357.32" y="1190.47" type="priority"/>
    <node id="2154197725" x="1407.86" y="1203.24" type="priority"/>
    <node id="2154197727" x="1463.83" y="1218.56" type="priority"/>
    <node id="2154197728" x="1379.37" y="1221.68" type="priority"/>
    <node id="2154197730" x="1771.11" y="1248.41" type="priority"/>
    <node id="2154197734" x="1427.02" y="1264.05" type="priority"/>
    <node id="2154197741" x="97.48" y="1899.02" type="priority"/>
    <node id="2154197760" x="1941.15" y="2103.74" type="priority"/>
    <node id="2154197761" x="1861.68" y="2107.38" type="priority"/>
    <node id="2154197763" x="1917.60" y="2126.23" type="priority"/>
    <node id="2154197767" x="1883.75" y="2157.92" type="priority"/>
    <node id="2154197773" x="642.63" y="2146.46" type="priority"/>
    <node id="2154197780" x="570.55" y="2183.72" type="priority"/>
    <node id="2154197788" x="605.20" y="2260.77" type="priority"/>
    <node id="2154197791" x="535.68" y="2267.61" type="priority"/>
    <node id="2154285124" x="2010.78" y="926.42" type="priority"/>
    <node id="2154285125" x="1972.31" y="934.95" type="priority"/>
    <node id="2154285126" x="1930.05" y="942.70" type="priority"/>
    <node id="2154285127" x="1884.13" y="954.62" type="priority"/>
    <node id="2154285128" x="1832.83" y="968.45" type="priority"/>
    <node id="2154285129" x="1893.14" y="987.98" type="priority"/>