<?xml version="1.0" encoding="UTF-8"?>

<!-- generated on 2022-01-01 10:38:59 by Eclipse SUMO netconvert Version 1.11.0
<configuration xmlns:xsi="http://www.w3.org/2001/XMLSchema-instance" xsi:noNamespaceSchemaLocation="http://sumo.dlr.de/xsd/netconvertConfiguration.xsd">

    <input>
        <type-files value="D:\Sumo\data\typemap\osmNetconvert.typ.xml"/>
        <osm-files value="berrechid.osm.xml"/>
    </input>

    <output>
        <output-file value="berrechid.net.xml"/>
    </output>

    <projection>
        <proj.utm value="true"/>
    </projection>

    <processing>
        <geometry.remove value="true"/>
        <roundabouts.guess value="true"/>
    </processing>

    <tls_building>
        <tls.discard-simple value="true"/>
        <tls.join value="true"/>
        <tls.guess-signals value="true"/>
    </tls_building>

    <ramp_guessing>
        <ramps.guess value="true"/>
    </ramp_guessing>

    <edge_removal>
        <remove-edges.by-vclass value="rail,rail_electric,bicycle,pedestrian"/>
        <remove-edges.by-type value="rail,rail_urban,rail_electric,railway.tram,railway.subway"/>
    </edge_removal>

    <junctions>
        <no-internal-links value="true"/>
        <junctions.join value="true"/>
    </junctions>

    <report>
        <aggregate-warnings value="5"/>
    </report>

</configuration>
-->

<net version="1.9" junctionCornerDetail="5" limitTurnSpeed="5.50" xmlns:xsi="http://www.w3.org/2001/XMLSchema-instance" xsi:noNamespaceSchemaLocation="http://sumo.dlr.de/xsd/net_file.xsd">

    <location netOffset="-630942.14,-3680171.47" convBoundary="0.00,0.00,3547.39,3574.00" origBoundary="-7.594146,33.252481,-7.556115,33.284645" projParameter="+proj=utm +zone=29 +ellps=WGS84 +datum=WGS84 +units=m +no_defs"/>

    <type id="highway.bridleway" priority="1" numLanes="1" speed="2.78" allow="pedestrian" oneway="1" width="2.00"/>
    <type id="highway.bus_guideway" priority="1" numLanes="1" speed="27.78" allow="bus" oneway="1"/>
    <type id="highway.cycleway" priority="1" numLanes="1" speed="8.33" allow="bicycle" oneway="0" width="1.00"/>
    <type id="highway.footway" priority="1" numLanes="1" speed="2.78" allow="pedestrian" oneway="1" width="2.00"/>
    <type id="highway.ford" priority="1" numLanes="1" speed="2.78" allow="army" oneway="0"/>
    <type id="highway.living_street" priority="2" numLanes="1" speed="2.78" disallow="tram rail_urban rail rail_electric rail_fast ship" oneway="0"/>
    <type id="highway.motorway" priority="14" numLanes="2" speed="39.44" allow="private emergency authority army vip passenger hov taxi bus coach delivery truck trailer motorcycle evehicle custom1 custom2" oneway="1"/>
    <type id="highway.motorway_link" priority="9" numLanes="1" speed="22.22" allow="private emergency authority army vip passenger hov taxi bus coach delivery truck trailer motorcycle evehicle custom1 custom2" oneway="1"/>
    <type id="highway.path" priority="1" numLanes="1" speed="2.78" allow="pedestrian bicycle" oneway="0" width="2.00"/>
    <type id="highway.pedestrian" priority="1" numLanes="1" speed="2.78" allow="pedestrian" oneway="1" width="2.00"/>
    <type id="highway.primary" priority="12" numLanes="2" speed="27.78" disallow="tram rail_urban rail rail_electric rail_fast ship" oneway="0"/>
    <type id="highway.primary_link" priority="7" numLanes="1" speed="22.22" disallow="tram rail_urban rail rail_electric rail_fast ship" oneway="0"/>
    <type id="highway.raceway" priority="15" numLanes="2" speed="83.33" allow="vip" oneway="0"/>
    <type id="highway.residential" priority="3" numLanes="1" speed="13.89" disallow="tram rail_urban rail rail_electric rail_fast ship" oneway="0"/>
    <type id="highway.secondary" priority="11" numLanes="1" speed="27.78" disallow="tram rail_urban rail rail_electric rail_fast ship" oneway="0"/>
    <type id="highway.secondary_link" priority="6" numLanes="1" speed="22.22" disallow="tram rail_urban rail rail_electric rail_fast ship" oneway="0"/>
    <type id="highway.service" priority="1" numLanes="1" speed="5.56" allow="pedestrian delivery bicycle" oneway="0"/>
    <type id="highway.stairs" priority="1" numLanes="1" speed="1.39" allow="pedestrian" oneway="1" width="2.00"/>
    <type id="highway.step" priority="1" numLanes="1" speed="1.39" allow="pedestrian" oneway="1" width="2.00"/>
    <type id="highway.steps" priority="1" numLanes="1" speed="1.39" allow="pedestrian" oneway="1" width="2.00"/>
    <type id="highway.tertiary" priority="10" numLanes="1" speed="22.22" disallow="tram rail_urban rail rail_electric rail_fast ship" oneway="0"/>
    <type id="highway.tertiary_link" priority="5" numLanes="1" speed="22.22" disallow="tram rail_urban rail rail_electric rail_fast ship" oneway="0"/>
    <type id="highway.track" priority="1" numLanes="1" speed="5.56" allow="pedestrian motorcycle moped bicycle" oneway="0"/>
    <type id="highway.trunk" priority="13" numLanes="2" speed="27.78" disallow="pedestrian bicycle tram rail_urban rail rail_electric rail_fast ship" oneway="0"/>
    <type id="highway.trunk_link" priority="8" numLanes="1" speed="22.22" disallow="pedestrian bicycle tram rail_urban rail rail_electric rail_fast ship" oneway="0"/>
    <type id="highway.unclassified" priority="4" numLanes="1" speed="13.89" disallow="tram rail_urban rail rail_electric rail_fast ship" oneway="0"/>
    <type id="highway.unsurfaced" priority="1" numLanes="1" speed="8.33" disallow="tram rail_urban rail rail_electric rail_fast ship" oneway="0"/>
    <type id="railway.highspeed" priority="21" numLanes="1" speed="69.44" allow="rail_fast" oneway="1"/>
    <type id="railway.light_rail" priority="19" numLanes="1" speed="27.78" allow="rail_urban" oneway="1"/>
    <type id="railway.preserved" priority="16" numLanes="1" speed="27.78" allow="rail" oneway="1"/>
    <type id="railway.rail" priority="20" numLanes="1" speed="44.44" allow="rail" oneway="1"/>
    <type id="railway.subway" priority="18" numLanes="1" speed="27.78" allow="rail_urban" oneway="1"/>
    <type id="railway.tram" priority="17" numLanes="1" speed="13.89" allow="tram" oneway="1"/>

    <edge id="-1011687168" from="9334124611" to="5700433370" priority="1" type="highway.service" shape="686.50,548.44 693.59,504.51 701.12,483.96 708.49,474.37 724.07,468.36 763.55,467.89 955.99,485.67 1022.88,492.80 1038.37,492.89 1051.76,491.33 1067.55,487.65">
        <lane id="-1011687168_0" index="0" allow="pedestrian delivery bicycle" speed="5.56" length="440.37" shape="684.92,548.18 692.03,504.10 699.70,483.18 707.50,473.04 723.76,466.76 763.62,466.29 956.15,484.08 1022.97,491.20 1038.28,491.29 1051.49,489.75 1060.10,487.74"/>
    </edge>
    <edge id="-119104965#0" from="1339097351" to="1339097428" priority="3" type="highway.residential">
        <lane id="-119104965#0_0" index="0" disallow="tram rail_urban rail rail_electric rail_fast ship" speed="13.89" length="118.48" shape="1824.90,1422.10 1722.12,1406.51"/>
    </edge>
    <edge id="-119104965#1" from="1339097571" to="1339097351" priority="3" type="highway.residential">
        <lane id="-119104965#1_0" index="0" disallow="tram rail_urban rail rail_electric rail_fast ship" speed="13.89" length="139.24" shape="1963.16,1438.71 1839.33,1424.05"/>
    </edge>
    <edge id="-119104965#2" from="2154285166" to="1339097571" priority="3" type="highway.residential">
        <lane id="-119104965#2_0" index="0" disallow="tram rail_urban rail rail_electric rail_fast ship" speed="13.89" length="35.08" shape="1997.82,1443.48 1977.55,1440.59"/>
    </edge>
    <edge id="-119104965#3" from="2154285168" to="2154285166" priority="3" type="highway.residential" shape="2101.59,1458.00 2062.44,1451.93 2005.34,1442.94">
        <lane id="-119104965#3_0" index="0" disallow="tram rail_urban rail rail_electric rail_fast ship" speed="13.89" length="97.42" shape="2101.35,1459.58 2062.20,1453.51 2012.00,1445.61"/>
    </edge>
    <edge id="-119104966#0" from="6848228178" to="1339097745" priority="3" type="highway.residential">
        <lane id="-119104966#0_0" index="0" disallow="tram rail_urban rail rail_electric rail_fast ship" speed="13.89" length="105.26" shape="1420.92,1632.36 1331.13,1617.71"/>
    </edge>
    <edge id="-119104966#1" from="6848228180" to="6848228178" priority="3" type="highway.residential" shape="1535.15,1649.38 1434.05,1632.88 1428.32,1631.95">
        <lane id="-119104966#1_0" index="0" disallow="tram rail_urban rail rail_electric rail_fast ship" speed="13.89" length="108.24" shape="1527.74,1649.79 1435.14,1634.68"/>
    </edge>
    <edge id="-119104966#2" from="4890624726" to="6848228180" priority="3" type="highway.residential">
        <lane id="-119104966#2_0" index="0" disallow="tram rail_urban rail rail_electric rail_fast ship" speed="13.89" length="76.37" shape="1603.08,1662.08 1541.95,1652.11"/>
    </edge>
    <edge id="-119104967#0" from="cluster_1339097345_6808628321" to="1339097599" priority="3" type="highway.residential" shape="868.14,1605.47 822.44,1494.54">
        <lane id="-119104967#0_0" index="0" disallow="tram rail_urban rail rail_electric rail_fast ship" speed="13.89" length="123.52" shape="865.11,1602.31 823.68,1501.74"/>
    </edge>
    <edge id="-119104967#1" from="cluster_1339097610_6809795472" to="cluster_1339097345_6808628321" priority="3" type="highway.residential" shape="902.38,1684.91 896.99,1668.17 890.19,1653.15 868.14,1605.47">
        <lane id="-119104967#1_0" index="0" disallow="tram rail_urban rail rail_electric rail_fast ship" speed="13.89" length="87.97" shape="897.34,1674.49 895.49,1668.75 888.74,1653.82 870.76,1614.95"/>
    </edge>
    <edge id="-119104968#0" from="1340585006" to="cluster_1339097679_1340584968" priority="3" type="highway.residential" shape="1557.75,1808.59 1550.34,1801.78 1542.55,1796.50 1529.06,1791.51">
        <lane id="-119104968#0_0" index="0" disallow="tram rail_urban rail rail_electric rail_fast ship" speed="13.89" length="37.70" shape="1549.30,1803.00 1541.82,1797.94 1535.66,1795.66"/>
    </edge>
    <edge id="-119104968#1" from="1340585011" to="1340585006" priority="3" type="highway.residential">
        <lane id="-119104968#1_0" index="0" disallow="tram rail_urban rail rail_electric rail_fast ship" speed="13.89" length="36.61" shape="1574.83,1827.88 1560.60,1813.69"/>
    </edge>
    <edge id="-119104968#2" from="1339097547" to="1340585011" priority="3" type="highway.residential" shape="1630.69,1851.24 1604.47,1845.53 1595.55,1842.08 1588.61,1838.32 1583.67,1834.44">
        <lane id="-119104968#2_0" index="0" disallow="tram rail_urban rail rail_electric rail_fast ship" speed="13.89" length="50.58" shape="1623.11,1851.22 1604.01,1847.07 1594.88,1843.54 1587.73,1839.66 1587.18,1839.23"/>
    </edge>
    <edge id="-119104968#3" from="cluster_1339097634_1340584935" to="1339097547" priority="3" type="highway.residential" shape="1645.94,1868.85 1640.10,1861.88 1635.01,1855.84 1630.69,1851.24">
        <lane id="-119104968#3_0" index="0" disallow="tram rail_urban rail rail_electric rail_fast ship" speed="13.89" length="28.18" shape="1642.19,1866.87 1638.88,1862.91 1633.81,1856.90 1633.32,1856.38"/>
    </edge>
    <edge id="-119104970#0" from="1339097672" to="1339097703" priority="3" type="highway.residential">
        <lane id="-119104970#0_0" index="0" disallow="tram rail_urban rail rail_electric rail_fast ship" speed="13.89" length="60.80" shape="1806.56,1328.56 1801.74,1374.53"/>
    </edge>
    <edge id="-119104970#1" from="1339097389" to="1339097672" priority="3" type="highway.residential">
        <lane id="-119104970#1_0" index="0" disallow="tram rail_urban rail rail_electric rail_fast ship" speed="13.89" length="42.65" shape="1811.86,1287.55 1808.27,1314.22"/>
    </edge>
    <edge id="-119104972#0" from="1339097363" to="1339097755" priority="3" type="highway.residential">
        <lane id="-119104972#0_0" index="0" disallow="tram rail_urban rail rail_electric rail_fast ship" speed="13.89" length="58.87" shape="605.66,1443.45 567.32,1467.19"/>
    </edge>
    <edge id="-119104972#1" from="1339097420" to="1339097363" priority="3" type="highway.residential">
        <lane id="-119104972#1_0" index="0" disallow="tram rail_urban rail rail_electric rail_fast ship" speed="13.89" length="56.43" shape="653.47,1418.62 619.52,1435.86"/>
    </edge>
    <edge id="-119104972#2" from="1339097690" to="1339097420" priority="3" type="highway.residential" shape="683.13,1402.39 670.23,1408.99 660.11,1413.46">
        <lane id="-119104972#2_0" index="0" disallow="tram rail_urban rail rail_electric rail_fast ship" speed="13.89" length="25.55" shape="672.86,1409.44 670.91,1410.44 668.66,1411.43"/>
    </edge>
    <edge id="-119104972#3" from="4210333398" to="1339097690" priority="3" type="highway.residential">
        <lane id="-119104972#3_0" index="0" disallow="tram rail_urban rail rail_electric rail_fast ship" speed="13.89" length="25.52" shape="694.87,1396.90 694.70,1397.01"/>
    </edge>
    <edge id="-119104972#4" from="cluster_1339097426_1339097718_1339097739" to="4210333398" priority="3" type="highway.residential" shape="753.53,1360.39 704.74,1388.81">
        <lane id="-119104972#4_0" index="0" disallow="tram rail_urban rail rail_electric rail_fast ship" speed="13.89" length="70.48" shape="747.41,1365.81 710.99,1387.02"/>
    </edge>
    <edge id="-119104972#6" from="cluster_1339097598_5673072801" to="cluster_1339097426_1339097718_1339097739" priority="3" type="highway.residential" shape="815.67,1316.63 798.21,1332.18 779.39,1347.36">
        <lane id="-119104972#6_0" index="0" disallow="tram rail_urban rail rail_electric rail_fast ship" speed="13.89" length="68.94" shape="810.09,1323.74 799.25,1333.41 780.40,1348.60"/>
    </edge>
    <edge id="-119104975#0" from="1339097651" to="cluster_1339097456_5672997247" priority="3" type="highway.residential" shape="1764.02,1657.41 1759.08,1687.95">
        <lane id="-119104975#0_0" index="0" disallow="tram rail_urban rail rail_electric rail_fast ship" speed="13.89" length="33.35" shape="1764.47,1664.66 1761.90,1680.49"/>
    </edge>
    <edge id="-119104975#1" from="1339097422" to="1339097651" priority="3" type="highway.residential">
        <lane id="-119104975#1_0" index="0" disallow="tram rail_urban rail rail_electric rail_fast ship" speed="13.89" length="30.16" shape="1769.01,1634.83 1766.68,1650.45"/>
    </edge>
    <edge id="-119104975#2" from="cluster_1339097439_5673065217" to="1339097422" priority="3" type="highway.residential" shape="1772.11,1593.53 1768.48,1627.58">
        <lane id="-119104975#2_0" index="0" disallow="tram rail_urban rail rail_electric rail_fast ship" speed="13.89" length="34.41" shape="1772.93,1600.98 1770.82,1620.73"/>
    </edge>
    <edge id="-119104976#0" from="1339097720" to="2154285154" priority="3" type="highway.residential" shape="1992.69,1279.28 2071.94,1291.62 2123.07,1299.12">
        <lane id="-119104976#0_0" index="0" disallow="tram rail_urban rail rail_electric rail_fast ship" speed="13.89" length="131.88" shape="2000.05,1278.80 2072.18,1290.04 2123.30,1297.53"/>
    </edge>
    <edge id="-119104976#1" from="cluster_1339097654_6847141408" to="1339097720" priority="3" type="highway.residential" shape="1894.10,1262.21 1943.21,1272.21 1992.69,1279.28">
        <lane id="-119104976#1_0" index="0" disallow="tram rail_urban rail rail_electric rail_fast ship" speed="13.89" length="102.33" shape="1914.54,1264.74 1943.48,1270.64 1985.61,1276.65"/>
    </edge>
    <edge id="-119104977#0" from="1339097687" to="2154285157" priority="3" type="highway.residential" shape="1987.15,1314.28 2076.76,1326.54 2119.11,1333.07">
        <lane id="-119104977#0_0" index="0" disallow="tram rail_urban rail rail_electric rail_fast ship" speed="13.89" length="133.30" shape="1994.59,1313.68 2076.99,1324.96 2119.35,1331.49"/>
    </edge>
    <edge id="-119104977#1" from="3301604335" to="1339097687" priority="3" type="highway.residential">
        <lane id="-119104977#1_0" index="0" disallow="tram rail_urban rail rail_electric rail_fast ship" speed="13.89" length="73.01" shape="1922.04,1303.76 1980.30,1311.73"/>
    </edge>
    <edge id="-119104977#2" from="6847141409" to="3301604335" priority="3" type="highway.residential">
        <lane id="-119104977#2_0" index="0" disallow="tram rail_urban rail rail_electric rail_fast ship" speed="13.89" length="28.11" shape="1894.11,1299.79 1907.81,1301.76"/>
    </edge>
    <edge id="-119104977#3" from="cluster_1339097553_1341775287" to="6847141409" priority="3" type="highway.residential" shape="1834.60,1274.21 1842.01,1289.12 1845.23,1292.01 1849.32,1294.19 1853.92,1295.61 1886.99,1300.38">
        <lane id="-119104977#3_0" index="0" disallow="tram rail_urban rail rail_electric rail_fast ship" speed="13.89" length="67.34" shape="1839.45,1280.38 1843.31,1288.13 1846.15,1290.69 1849.94,1292.70 1854.28,1294.05 1879.84,1297.73"/>
    </edge>
    <edge id="-119104979" from="1339097759" to="1339097455" priority="3" type="highway.residential">
        <lane id="-119104979_0" index="0" disallow="tram rail_urban rail rail_electric rail_fast ship" speed="13.89" length="60.02" shape="1709.05,1591.71 1702.44,1636.80"/>
    </edge>
    <edge id="-119104980#0" from="1339097726" to="1339097370" priority="3" type="highway.residential">
        <lane id="-119104980#0_0" index="0" disallow="tram rail_urban rail rail_electric rail_fast ship" speed="13.89" length="60.19" shape="1683.47,1523.30 1638.09,1516.19"/>
    </edge>
    <edge id="-119104980#1" from="1339097750" to="1339097726" priority="3" type="highway.residential">
        <lane id="-119104980#1_0" index="0" disallow="tram rail_urban rail rail_electric rail_fast ship" speed="13.89" length="55.53" shape="1738.22,1532.36 1697.72,1525.61"/>
    </edge>
    <edge id="-119104981" from="6799265174" to="1339097756" priority="3" type="highway.residential">
        <lane id="-119104981_0" index="0" disallow="tram rail_urban rail rail_electric rail_fast ship" speed="13.89" length="75.25" shape="1429.47,1910.75 1369.27,1904.08"/>
    </edge>
    <edge id="-119104982#1" from="1339097745" to="cluster_1339097470_1339097500" priority="10" type="highway.tertiary" shape="1324.44,1615.00 1317.03,1654.84">
        <lane id="-119104982#1_0" index="0" disallow="tram rail_urban rail rail_electric rail_fast ship" speed="22.22" length="47.63" shape="1324.72,1622.21 1319.93,1647.96"/>
    </edge>
    <edge id="-119104982#10" from="2977407151" to="1339097611" priority="10" type="highway.tertiary">
        <lane id="-119104982#10_0" index="0" disallow="tram rail_urban rail rail_electric rail_fast ship" speed="22.22" length="24.32" shape="1363.28,1355.37 1362.22,1362.76"/>
    </edge>
    <edge id="-119104982#11" from="6847849896" to="2977407151" priority="10" type="highway.tertiary" shape="1377.12,1305.72 1368.65,1322.65 1365.03,1336.34 1362.88,1346.88">
        <lane id="-119104982#11_0" index="0" disallow="tram rail_urban rail rail_electric rail_fast ship" speed="22.22" length="43.85" shape="1376.03,1311.47 1370.15,1323.22 1366.58,1336.70 1365.69,1341.11"/>
    </edge>
    <edge id="-119104982#2" from="1339097444" to="1339097745" priority="10" type="highway.tertiary">
        <lane id="-119104982#2_0" index="0" disallow="tram rail_urban rail rail_electric rail_fast ship" speed="22.22" length="36.00" shape="1329.09,1586.74 1326.77,1608.27"/>
    </edge>
    <edge id="-119104982#3" from="1339097358" to="1339097444" priority="10" type="highway.tertiary">
        <lane id="-119104982#3_0" index="0" disallow="tram rail_urban rail rail_electric rail_fast ship" speed="22.22" length="52.20" shape="1337.25,1535.14 1331.08,1572.21"/>
    </edge>
    <edge id="-119104982#4" from="cluster_1339097545_1339097736" to="1339097358" priority="10" type="highway.tertiary" shape="1340.63,1499.41 1336.87,1527.71">
        <lane id="-119104982#4_0" index="0" disallow="tram rail_urban rail rail_electric rail_fast ship" speed="22.22" length="34.72" shape="1341.27,1506.74 1339.38,1520.95"/>
    </edge>
    <edge id="-119104982#6" from="1339097329" to="cluster_1339097545_1339097736" priority="10" type="highway.tertiary" shape="1345.02,1470.87 1342.36,1487.19">
        <lane id="-119104982#6_0" index="0" disallow="tram rail_urban rail rail_electric rail_fast ship" speed="22.22" length="22.71" shape="1345.45,1478.17 1345.09,1480.36"/>
    </edge>
    <edge id="-119104982#7" from="1339097733" to="1339097329" priority="10" type="highway.tertiary">
        <lane id="-119104982#7_0" index="0" disallow="tram rail_urban rail rail_electric rail_fast ship" speed="22.22" length="30.71" shape="1349.76,1447.79 1347.56,1464.04"/>
    </edge>
    <edge id="-119104982#8" from="1339097404" to="1339097733" priority="10" type="highway.tertiary">
        <lane id="-119104982#8_0" index="0" disallow="tram rail_urban rail rail_electric rail_fast ship" speed="22.22" length="48.47" shape="1357.21,1399.00 1351.84,1433.49"/>
    </edge>
    <edge id="-119104982#9" from="1339097611" to="1339097404" priority="10" type="highway.tertiary">
        <lane id="-119104982#9_0" index="0" disallow="tram rail_urban rail rail_electric rail_fast ship" speed="22.22" length="21.77" shape="1359.91,1379.55 1359.27,1384.46"/>
    </edge>
    <edge id="-119104983#0" from="1339097672" to="1339097626" priority="3" type="highway.residential">
        <lane id="-119104983#0_0" index="0" disallow="tram rail_urban rail rail_electric rail_fast ship" speed="13.89" length="79.85" shape="1798.42,1321.93 1733.20,1314.59"/>
    </edge>
    <edge id="-119104983#1" from="3301604336" to="1339097672" priority="3" type="highway.residential">
        <lane id="-119104983#1_0" index="0" disallow="tram rail_urban rail rail_electric rail_fast ship" speed="13.89" length="32.59" shape="1830.81,1326.14 1812.74,1323.70"/>
    </edge>
    <edge id="-119104983#2" from="cluster_3301604337_5673093812" to="3301604336" priority="3" type="highway.residential" shape="1909.56,1333.94 1838.02,1325.50">
        <lane id="-119104983#2_0" index="0" disallow="tram rail_urban rail rail_electric rail_fast ship" speed="13.89" length="78.98" shape="1902.40,1334.70 1845.07,1327.94"/>
    </edge>
    <edge id="-119104988#0" from="1341775241" to="1339097540" priority="3" type="highway.residential" shape="2131.24,1175.87 2132.53,1182.41 2135.19,1212.85">
        <lane id="-119104988#0_0" index="0" disallow="tram rail_urban rail rail_electric rail_fast ship" speed="13.89" length="37.21" shape="2134.15,1182.59 2136.13,1205.22"/>
    </edge>
    <edge id="-119104988#1" from="1346248612" to="1341775241" priority="3" type="highway.residential" shape="2113.06,1086.28 2120.39,1122.32 2126.55,1152.52 2131.24,1175.87">
        <lane id="-119104988#1_0" index="0" disallow="tram rail_urban rail rail_electric rail_fast ship" speed="13.89" length="91.42" shape="2116.05,1092.95 2121.96,1122.00 2128.11,1152.20 2131.38,1168.45"/>
    </edge>
    <edge id="-119104988#10" from="cluster_2773581568_5670664476" to="2773580500" priority="3" type="highway.residential" shape="1985.12,605.20 1993.57,622.47">
        <lane id="-119104988#10_0" index="0" disallow="tram rail_urban rail rail_electric rail_fast ship" speed="13.89" length="21.71" shape="1989.62,610.74 1991.79,615.19"/>
    </edge>
    <edge id="-119104988#12" from="4610458103" to="cluster_2773581568_5670664476" priority="3" type="highway.residential" shape="1955.61,546.49 1982.90,600.75">
        <lane id="-119104988#12_0" index="0" disallow="tram rail_urban rail rail_electric rail_fast ship" speed="13.89" length="63.22" shape="1960.04,551.74 1981.19,593.78"/>
    </edge>
    <edge id="-119104988#13" from="2773580513" to="4610458103" priority="3" type="highway.residential">
        <lane id="-119104988#13_0" index="0" disallow="tram rail_urban rail rail_electric rail_fast ship" speed="13.89" length="57.59" shape="1933.78,501.27 1953.38,538.77"/>
    </edge>
    <edge id="-119104988#14" from="2977402086" to="2773580513" priority="3" type="highway.residential">
        <lane id="-119104988#14_0" index="0" disallow="tram rail_urban rail rail_electric rail_fast ship" speed="13.89" length="30.71" shape="1917.31,472.47 1926.84,488.72"/>
    </edge>
    <edge id="-119104988#15" from="1339097550" to="2977402086" priority="3" type="highway.residential" shape="1812.73,271.72 1827.62,299.21 1844.14,332.47 1871.14,384.90 1899.10,439.65 1913.40,468.96">
        <lane id="-119104988#15_0" index="0" disallow="tram rail_urban rail rail_electric rail_fast ship" speed="13.89" length="221.46" shape="1814.14,270.96 1829.04,298.48 1845.57,331.74 1872.56,384.17 1900.53,438.93 1909.15,456.60"/>
    </edge>
    <edge id="-119104988#2" from="1341775270" to="1346248612" priority="3" type="highway.residential">
        <lane id="-119104988#2_0" index="0" disallow="tram rail_urban rail rail_electric rail_fast ship" speed="13.89" length="31.34" shape="2109.65,1062.30 2113.12,1078.82"/>
    </edge>
    <edge id="-119104988#3" from="1339097573" to="1341775270" priority="3" type="highway.residential" shape="2067.91,864.54 2086.88,952.33 2091.21,975.97 2106.61,1055.61">
        <lane id="-119104988#3_0" index="0" disallow="tram rail_urban rail rail_electric rail_fast ship" speed="13.89" length="194.96" shape="2071.09,871.68 2088.45,952.01 2092.78,975.68 2106.83,1048.29"/>
    </edge>
    <edge id="-119104988#4" from="1346248482" to="1339097573" priority="3" type="highway.residential">
        <lane id="-119104988#4_0" index="0" disallow="tram rail_urban rail rail_electric rail_fast ship" speed="13.89" length="34.48" shape="2065.29,837.70 2068.24,856.35"/>
    </edge>
    <edge id="-119104988#5" from="cluster_1346248501_2929808874" to="1346248482" priority="3" type="highway.residential" shape="2056.57,798.68 2062.53,830.49">
        <lane id="-119104988#5_0" index="0" disallow="tram rail_urban rail rail_electric rail_fast ship" speed="13.89" length="42.93" shape="2059.50,805.66 2062.82,823.35"/>
    </edge>
    <edge id="-119104988#7" from="2773580314" to="cluster_1346248501_2929808874" priority="3" type="highway.residential" shape="2029.15,707.84 2049.33,760.05 2052.68,777.91">
        <lane id="-119104988#7_0" index="0" disallow="tram rail_urban rail rail_electric rail_fast ship" speed="13.89" length="84.72" shape="2033.24,713.98 2050.87,759.61 2051.81,764.57"/>
    </edge>
    <edge id="-119104988#8" from="2929808800" to="2773580314" priority="3" type="highway.residential">
        <lane id="-119104988#8_0" index="0" disallow="tram rail_urban rail rail_electric rail_fast ship" speed="13.89" length="42.53" shape="2017.70,674.54 2027.98,700.53"/>
    </edge>
    <edge id="-119104988#9" from="2773580500" to="2929808800" priority="3" type="highway.residential">
        <lane id="-119104988#9_0" index="0" disallow="tram rail_urban rail rail_electric rail_fast ship" speed="13.89" length="49.97" shape="1997.92,628.45 2012.20,661.28"/>
    </edge>
    <edge id="-119104991#0" from="1340899849" to="1339097594" priority="3" type="highway.residential">
        <lane id="-119104991#0_0" index="0" disallow="tram rail_urban rail rail_electric rail_fast ship" speed="13.89" length="28.25" shape="1743.11,1894.55 1741.24,1907.99"/>
    </edge>
    <edge id="-119104991#1" from="1339097629" to="1340899849" priority="3" type="highway.residential">
        <lane id="-119104991#1_0" index="0" disallow="tram rail_urban rail rail_electric rail_fast ship" speed="13.89" length="32.40" shape="1747.19,1862.54 1744.98,1880.29"/>
    </edge>
    <edge id="-119104991#2" from="1340899993" to="1339097629" priority="3" type="highway.residential">
        <lane id="-119104991#2_0" index="0" disallow="tram rail_urban rail rail_electric rail_fast ship" speed="13.89" length="96.02" shape="1765.34,1768.32 1749.49,1848.21"/>
    </edge>
    <edge id="-119104991#3" from="1339097748" to="1340899993" priority="3" type="highway.residential">
        <lane id="-119104991#3_0" index="0" disallow="tram rail_urban rail rail_electric rail_fast ship" speed="13.89" length="18.64" shape="1768.75,1749.78 1768.02,1753.96"/>
    </edge>
    <edge id="-119104992#1" from="1339097737" to="1339097478" priority="3" type="highway.residential" shape="1730.11,1649.07 1729.72,1653.94 1725.70,1681.44">
        <lane id="-119104992#1_0" index="0" disallow="tram rail_urban rail rail_electric rail_fast ship" speed="13.89" length="32.67" shape="1731.02,1656.08 1728.33,1674.52"/>
    </edge>
    <edge id="-119104992#2" from="1339097758" to="1339097737" priority="3" type="highway.residential">
        <lane id="-119104992#2_0" index="0" disallow="tram rail_urban rail rail_electric rail_fast ship" speed="13.89" length="60.95" shape="1739.08,1596.07 1732.70,1642.04"/>
    </edge>
    <edge id="-119104992#3" from="1339097409" to="1339097758" priority="3" type="highway.residential">
        <lane id="-119104992#3_0" index="0" disallow="tram rail_urban rail rail_electric rail_fast ship" speed="13.89" length="32.11" shape="1743.36,1564.30 1741.03,1581.74"/>
    </edge>
    <edge id="-119104992#4" from="1339097750" to="1339097409" priority="3" type="highway.residential">
        <lane id="-119104992#4_0" index="0" disallow="tram rail_urban rail rail_electric rail_fast ship" speed="13.89" length="25.08" shape="1746.22,1539.35 1745.10,1549.81"/>
    </edge>
    <edge id="-119104993#0" from="1339097554" to="1339097625" priority="3" type="highway.residential">
        <lane id="-119104993#0_0" index="0" disallow="tram rail_urban rail rail_electric rail_fast ship" speed="13.89" length="90.29" shape="1468.84,1939.66 1528.26,1893.46"/>
    </edge>
    <edge id="-119104993#1" from="6799329637" to="1339097554" priority="3" type="highway.residential">
        <lane id="-119104993#1_0" index="0" disallow="tram rail_urban rail rail_electric rail_fast ship" speed="13.89" length="51.11" shape="1429.52,1972.25 1457.46,1948.84"/>
    </edge>
    <edge id="-119104993#2" from="1340584911" to="6799329637" priority="3" type="highway.residential">