<?xml version="1.0" encoding="UTF-8"?>

<!-- generated on 2022-01-01 10:39:00 by Eclipse SUMO netconvert Version 1.11.0
<configuration xmlns:xsi="http://www.w3.org/2001/XMLSchema-instance" xsi:noNamespaceSchemaLocation="http://sumo.dlr.de/xsd/netconvertConfiguration.xsd">

    <input>
        <sumo-net-file value="berrechid.net.xml"/>
    </input>

    <output>
        <plain-output-prefix value="berrechid"/>
    </output>

    <processing>
        <geometry.min-radius.fix.railways value="false"/>
        <geometry.max-grade.fix value="false"/>
        <offset.disable-normalization value="true"/>
        <lefthand value="false"/>
    </processing>

    <junctions>
        <no-internal-links value="true"/>
        <no-turnarounds value="true"/>
        <junctions.corner-detail value="5"/>
        <junctions.limit-turn-speed value="5.5"/>
        <rectangular-lane-cut value="false"/>
    </junctions>

    <pedestrian>
        <walkingareas value="false"/>
    </pedestrian>

    <report>
        <aggregate-warnings value="5"/>
    </report>

</configuration>
-->

<edges version="1.9" xmlns:xsi="http://www.w3.org/2001/XMLSchema-instance" xsi:noNamespaceSchemaLocation="http://sumo.dlr.de/xsd/edges_file.xsd">
    <edge id="-1011687168" from="9334124611" to="5700433370" priority="1" type="highway.service" numLanes="1" speed="5.56" shape="686.50,548.44 693.59,504.51 701.12,483.96 708.49,474.37 724.07,468.36 763.55,467.89 955.99,485.67 1022.88,492.80 1038.37,492.89 1051.76,491.33 1067.55,487.65" allow="pedestrian delivery bicycle"/>
    <edge id="-119104965#0" from="1339097351" to="1339097428" priority="3" type="highway.residential" numLanes="1" speed="13.89" disallow="tram rail_urban rail rail_electric rail_fast ship"/>
    <edge id="-119104965#1" from="1339097571" to="1339097351" priority="3" type="highway.residential" numLanes="1" speed="13.89" disallow="tram rail_urban rail rail_electric rail_fast ship"/>
    <edge id="-119104965#2" from="2154285166" to="1339097571" priority="3" type="highway.residential" numLanes="1" speed="13.89" disallow="tram rail_urban rail rail_electric rail_fast ship"/>
    <edge id="-119104965#3" from="2154285168" to="2154285166" priority="3" type="highway.residential" numLanes="1" speed="13.89" shape="2101.59,1458.00 2062.44,1451.93 2005.34,1442.94" disallow="tram rail_urban rail rail_electric rail_fast ship"/>
    <edge id="-119104966#0" from="6848228178" to="1339097745" priority="3" type="highway.residential" numLanes="1" speed="13.89" disallow="tram rail_urban rail rail_electric rail_fast ship"/>
    <edge id="-119104966#1" from="6848228180" to="6848228178" priority="3" type="highway.residential" numLanes="1" speed="13.89" shape="1535.15,1649.38 1434.05,1632.88 1428.32,1631.95" disallow="tram rail_urban rail rail_electric rail_fast ship"/>
    <edge id="-119104966#2" from="4890624726" to="6848228180" priority="3" type="highway.residential" numLanes="1" speed="13.89" disallow="tram rail_urban rail rail_electric rail_fast ship"/>
    <edge id="-119104967#0" from="cluster_1339097345_6808628321" to="1339097599" priority="3" type="highway.residential" numLanes="1" speed="13.89" shape="868.14,1605.47 822.44,1494.54" disallow="tram rail_urban rail rail_electric rail_fast ship"/>
    <edge id="-119104967#1" from="cluster_1339097610_6809795472" to="cluster_1339097345_6808628321" priority="3" type="highway.residential" numLanes="1" speed="13.89" shape="902.38,1684.91 896.99,1668.17 890.19,1653.15 868.14,1605.47" disallow="tram rail_urban rail rail_electric rail_fast ship"/>
    <edge id="-119104968#0" from="1340585006" to="cluster_1339097679_1340584968" priority="3" type="highway.residential" numLanes="1" speed="13.89" shape="1557.75,1808.59 1550.34,1801.78 1542.55,1796.50 1529.06,1791.51" disallow="tram rail_urban rail rail_electric rail_fast ship"/>
    <edge id="-119104968#1" from="1340585011" to="1340585006" priority="3" type="highway.residential" numLanes="1" speed="13.89" disallow="tram rail_urban rail rail_electric rail_fast ship"/>
    <edge id="-119104968#2" from="1339097547" to="1340585011" priority="3" type="highway.residential" numLanes="1" speed="13.89" shape="1630.69,1851.24 1604.47,1845.53 1595.55,1842.08 1588.61,1838.32 1583.67,1834.44" disallow="tram rail_urban rail rail_electric rail_fast ship"/>
    <edge id="-119104968#3" from="cluster_1339097634_1340584935" to="1339097547" priority="3" type="highway.residential" numLanes="1" speed="13.89" shape="1645.94,1868.85 1640.10,1861.88 1635.01,1855.84 1630.69,1851.24" disallow="tram rail_urban rail rail_electric rail_fast ship"/>
    <edge id="-119104970#0" from="1339097672" to="1339097703" priority="3" type="highway.residential" numLanes="1" speed="13.89" disallow="tram rail_urban rail rail_electric rail_fast ship"/>
    <edge id="-119104970#1" from="1339097389" to="1339097672" priority="3" type="highway.residential" numLanes="1" speed="13.89" disallow="tram rail_urban rail rail_electric rail_fast ship"/>
    <edge id="-119104972#0" from="1339097363" to="1339097755" priority="3" type="highway.residential" numLanes="1" speed="13.89" disallow="tram rail_urban rail rail_electric rail_fast ship"/>
    <edge id="-119104972#1" from="1339097420" to="1339097363" priority="3" type="highway.residential" numLanes="1" speed="13.89" disallow="tram rail_urban rail rail_electric rail_fast ship"/>
    <edge id="-119104972#2" from="1339097690" to="1339097420" priority="3" type="highway.residential" numLanes="1" speed="13.89" shape="683.13,1402.39 670.23,1408.99 660.11,1413.46" disallow="tram rail_urban rail rail_electric rail_fast ship"/>
    <edge id="-119104972#3" from="4210333398" to="1339097690" priority="3" type="highway.residential" numLanes="1" speed="13.89" disallow="tram rail_urban rail rail_electric rail_fast ship"/>
    <edge id="-119104972#4" from="cluster_1339097426_1339097718_1339097739" to="4210333398" priority="3" type="highway.residential" numLanes="1" speed="13.89" shape="753.53,1360.39 704.74,1388.81" disallow="tram rail_urban rail rail_electric rail_fast ship"/>
    <edge id="-119104972#6" from="cluster_1339097598_5673072801" to="cluster_1339097426_1339097718_1339097739" priority="3" type="highway.residential" numLanes="1" speed="13.89" shape="815.67,1316.63 798.21,1332.18 779.39,1347.36" disallow="tram rail_urban rail rail_electric rail_fast ship"/>
    <edge id="-119104975#0" from="1339097651" to="cluster_1339097456_5672997247" priority="3" type="highway.residential" numLanes="1" speed="13.89" shape="1764.02,1657.41 1759.08,1687.95" disallow="tram rail_urban rail rail_electric rail_fast ship"/>
    <edge id="-119104975#1" from="1339097422" to="1339097651" priority="3" type="highway.residential" numLanes="1" speed="13.89" disallow="tram rail_urban rail rail_electric rail_fast ship"/>
    <edge id="-119104975#2" from="cluster_1339097439_5673065217" to="1339097422" priority="3" type="highway.residential" numLanes="1" speed="13.89" shape="1772.11,1593.53 1768.48,1627.58" disallow="tram rail_urban rail rail_electric rail_fast ship"/>
    <edge id="-119104976#0" from="1339097720" to="2154285154" priority="3" type="highway.residential" numLanes="1" speed="13.89" shape="1992.69,1279.28 2071.94,1291.62 2123.07,1299.12" disallow="tram rail_urban rail rail_electric rail_fast ship"/>
    <edge id="-119104976#1" from="cluster_1339097654_6847141408" to="1339097720" priority="3" type="highway.residential" numLanes="1" speed="13.89" shape="1894.10,1262.21 1943.21,1272.21 1992.69,1279.28" disallow="tram rail_urban rail rail_electric rail_fast ship"/>
    <edge id="-119104977#0" from="1339097687" to="2154285157" priority="3" type="highway.residential" numLanes="1" speed="13.89" shape="1987.15,1314.28 2076.76,1326.54 2119.11,1333.07" disallow="tram rail_urban rail rail_electric rail_fast ship"/>
    <edge id="-119104977#1" from="3301604335" to="1339097687" priority="3" type="highway.residential" numLanes="1" speed="13.89" disallow="tram rail_urban rail rail_electric rail_fast ship"/>
    <edge id="-119104977#2" from="6847141409" to="3301604335" priority="3" type="highway.residential" numLanes="1" speed="13.89" disallow="tram rail_urban rail rail_electric rail_fast ship"/>
    <edge id="-119104977#3" from="cluster_1339097553_1341775287" to="6847141409" priority="3" type="highway.residential" numLanes="1" speed="13.89" shape="1834.60,1274.21 1842.01,1289.12 1845.23,1292.01 1849.32,1294.19 1853.92,1295.61 1886.99,1300.38" disallow="tram rail_urban rail rail_electric rail_fast ship"/>
    <edge id="-119104979" from="1339097759" to="1339097455" priority="3" type="highway.residential" numLanes="1" speed="13.89" disallow="tram rail_urban rail rail_electric rail_fast ship"/>
    <edge id="-119104980#0" from="1339097726" to="1339097370" priority="3" type="highway.residential" numLanes="1" speed="13.89" disallow="tram rail_urban rail rail_electric rail_fast ship"/>
    <edge id="-119104980#1" from="1339097750" to="1339097726" priority="3" type="highway.residential" numLanes="1" speed="13.89" disallow="tram rail_urban rail rail_electric rail_fast ship"/>
    <edge id="-119104981" from="6799265174" to="1339097756" priority="3" type="highway.residential" numLanes="1" speed="13.89" disallow="tram rail_urban rail rail_electric rail_fast ship"/>
    <edge id="-119104982#1" from="1339097745" to="cluster_1339097470_1339097500" priority="10" type="highway.tertiary" numLanes="1" speed="22.22" shape="1324.44,1615.00 1317.03,1654.84" disallow="tram rail_urban rail rail_electric rail_fast ship"/>
    <edge id="-119104982#10" from="2977407151" to="1339097611" priority="10" type="highway.tertiary" numLanes="1" speed="22.22" disallow="tram rail_urban rail rail_electric rail_fast ship"/>
    <edge id="-119104982#11" from="6847849896" to="2977407151" priority="10" type="highway.tertiary" numLanes="1" speed="22.22" shape="1377.12,1305.72 1368.65,1322.65 1365.03,1336.34 1362.88,1346.88" disallow="tram rail_urban rail rail_electric rail_fast ship"/>
    <edge id="-119104982#2" from="1339097444" to="1339097745" priority="10" type="highway.tertiary" numLanes="1" speed="22.22" disallow="tram rail_urban rail rail_electric rail_fast ship"/>
    <edge id="-119104982#3" from="1339097358" to="1339097444" priority="10" type="highway.tertiary" numLanes="1" speed="22.22" disallow="tram rail_urban rail rail_electric rail_fast ship"/>
    <edge id="-119104982#4" from="cluster_1339097545_1339097736" to="1339097358" priority="10" type="highway.tertiary" numLanes="1" speed="22.22" shape="1340.63,1499.41 1336.87,1527.71" disallow="tram rail_urban rail rail_electric rail_fast ship"/>
    <edge id="-119104982#6" from="1339097329" to="cluster_1339097545_1339097736" priority="10" type="highway.tertiary" numLanes="1" speed="22.22" shape="1345.02,1470.87 1342.36,1487.19" disallow="tram rail_urban rail rail_electric rail_fast ship"/>
    <edge id="-119104982#7" from="1339097733" to="1339097329" priority="10" type="highway.tertiary" numLanes="1" speed="22.22" disallow="tram rail_urban rail rail_electric rail_fast ship"/>
    <edge id="-119104982#8" from="1339097404" to="1339097733" priority="10" type="highway.tertiary" numLanes="1" speed="22.22" disallow="tram rail_urban rail rail_electric rail_fast ship"/>
    <edge id="-119104982#9" from="1339097611" to="1339097404" priority="10" type="highway.tertiary" numLanes="1" speed="22.22" disallow="tram rail_urban rail rail_electric rail_fast ship"/>
    <edge id="-119104983#0" from="1339097672" to="1339097626" priority="3" type="highway.residential" numLanes="1" speed="13.89" disallow="tram rail_urban rail rail_electric rail_fast ship"/>
    <edge id="-119104983#1" from="3301604336" to="1339097672" priority="3" type="highway.residential" numLanes="1" speed="13.89" disallow="tram rail_urban rail rail_electric rail_fast ship"/>
    <edge id="-119104983#2" from="cluster_3301604337_5673093812" to="3301604336" priority="3" type="highway.residential" numLanes="1" speed="13.89" shape="1909.56,1333.94 1838.02,1325.50" disallow="tram rail_urban rail rail_electric rail_fast ship"/>
    <edge id="-119104988#0" from="1341775241" to="1339097540" priority="3" type="highway.residential" numLanes="1" speed="13.89" shape="2131.24,1175.87 2132.53,1182.41 2135.19,1212.85" disallow="tram rail_urban rail rail_electric rail_fast ship"/>
    <edge id="-119104988#1" from="1346248612" to="1341775241" priority="3" type="highway.residential" numLanes="1" speed="13.89" shape="2113.06,1086.28 2120.39,1122.32 2126.55,1152.52 2131.24,1175.87" disallow="tram rail_urban rail rail_electric rail_fast ship"/>
    <edge id="-119104988#10" from="cluster_2773581568_5670664476" to="2773580500" priority="3" type="highway.residential" numLanes="1" speed="13.89" shape="1985.12,605.20 1993.57,622.47" disallow="tram rail_urban rail rail_electric rail_fast ship"/>
    <edge id="-119104988#12" from="4610458103" to="cluster_2773581568_5670664476" priority="3" type="highway.residential" numLanes="1" speed="13.89" shape="1955.61,546.49 1982.90,600.75" disallow="tram rail_urban rail rail_electric rail_fast ship"/>
    <edge id="-119104988#13" from="2773580513" to="4610458103" priority="3" type="highway.residential" numLanes="1" speed="13.89" disallow="tram rail_urban rail rail_electric rail_fast ship"/>
    <edge id="-119104988#14" from="2977402086" to="2773580513" priority="3" type="highway.residential" numLanes="1" speed="13.89" disallow="tram rail_urban rail rail_electric rail_fast ship"/>
    <edge id="-119104988#15" from="1339097550" to="2977402086" priority="3" type="highway.residential" numLanes="1" speed="13.89" shape="1812.73,271.72 1827.62,299.21 1844.14,332.47 1871.14,384.90 1899.10,439.65 1913.40,468.96" disallow="tram rail_urban rail rail_electric rail_fast ship"/>
    <edge id="-119104988#2" from="1341775270" to="1346248612" priority="3" type="highway.residential" numLanes="1" speed="13.89" disallow="tram rail_urban rail rail_electric rail_fast ship"/>
    <edge id="-119104988#3" from="1339097573" to="1341775270" priority="3" type="highway.residential" numLanes="1" speed="13.89" shape="2067.91,864.54 2086.88,952.33 2091.21,975.97 2106.61,1055.61" disallow="tram rail_urban rail rail_electric rail_fast ship"/>
    <edge id="-119104988#4" from="1346248482" to="1339097573" priority="3" type="highway.residential" numLanes="1" speed="13.89" disallow="tram rail_urban rail rail_electric rail_fast ship"/>
    <edge id="-119104988#5" from="cluster_1346248501_2929808874" to="1346248482" priority="3" type="highway.residential" numLanes="1" speed="13.89" shape="2056.57,798.68 2062.53,830.49" disallow="tram rail_urban rail rail_electric rail_fast ship"/>
    <edge id="-119104988#7" from="2773580314" to="cluster_1346248501_2929808874" priority="3" type="highway.residential" numLanes="1" speed="13.89" shape="2029.15,707.84 2049.33,760.05 2052.68,777.91" disallow="tram rail_urban rail rail_electric rail_fast ship"/>
    <edge id="-119104988#8" from="2929808800" to="2773580314" priority="3" type="highway.residential" numLanes="1" speed="13.89" disallow="tram rail_urban rail rail_electric rail_fast ship"/>
    <edge id="-119104988#9" from="2773580500" to="2929808800" priority="3" type="highway.residential" numLanes="1" speed="13.89" disallow="tram rail_urban rail rail_electric rail_fast ship"/>
    <edge id="-119104991#0" from="1340899849" to="1339097594" priority="3" type="highway.residential" numLanes="1" speed="13.89" disallow="tram rail_urban rail rail_electric rail_fast ship"/>
    <edge id="-119104991#1" from="1339097629" to="1340899849" priority="3" type="highway.residential" numLanes="1" speed="13.89" disallow="tram rail_urban rail rail_electric rail_fast ship"/>
    <edge id="-119104991#2" from="1340899993" to="1339097629" priority="3" type="highway.residential" numLanes="1" speed="13.89" disallow="tram rail_urban rail rail_electric rail_fast ship"/>
    <edge id="-119104991#3" from="1339097748" to="1340899993" priority="3" type="highway.residential" numLanes="1" speed="13.89" disallow="tram rail_urban rail rail_electric rail_fast ship"/>
    <edge id="-119104992#1" from="1339097737" to="1339097478" priority="3" type="highway.residential" numLanes="1" speed="13.89" shape="1730.11,1649.07 1729.72,1653.94 1725.70,1681.44" disallow="tram rail_urban rail rail_electric rail_fast ship"/>
    <edge id="-119104992#2" from="1339097758" to="1339097737" priority="3" type="highway.residential" numLanes="1" speed="13.89" disallow="tram rail_urban rail rail_electric rail_fast ship"/>
    <edge id="-119104992#3" from="1339097409" to="1339097758" priority="3" type="highway.residential" numLanes="1" speed="13.89" disallow="tram rail_urban rail rail_electric rail_fast ship"/>
    <edge id="-119104992#4" from="1339097750" to="1339097409" priority="3" type="highway.residential" numLanes="1" speed="13.89" disallow="tram rail_urban rail rail_electric rail_fast ship"/>
    <edge id="-119104993#0" from="1339097554" to="1339097625" priority="3" type="highway.residential" numLanes="1" speed="13.89" disallow="tram rail_urban rail rail_electric rail_fast ship"/>
    <edge id="-119104993#1" from="6799329637" to="1339097554" priority="3" type="highway.residential" numLanes="1" speed="13.89" disallow="tram rail_urban rail rail_electric rail_fast ship"/>
    <edge id="-119104993#2" from="1340584911" to="6799329637" priority="3" type="highway.residential" numLanes="1" speed="13.89" disallow="tram rail_urban rail rail_electric rail_fast ship"/>
    <edge id="-119104993#3" from="1339097585" to="1340584911" priority="3" type="highway.residential" numLanes="1" speed="13.89" disallow="tram rail_urban rail rail_electric rail_fast ship"/>
    <edge id="-119104994#1" from="2154285151" to="cluster_1339097394_6847141446" priority="3" type="highway.residential" numLanes="1" speed="13.89" shape="1474.31,1275.09 1472.40,1278.13 1450.02,1303.31" disallow="tram rail_urban rail rail_electric rail_fast ship"/>
    <edge id="-119104994#10" from="cluster_1339097414_2773581025" to="cluster_2154197695_5670775365" priority="3" type="highway.residential" numLanes="1" speed="13.89" shape="1722.34,1012.52 1672.38,1042.47" disallow="tram rail_urban rail rail_electric rail_fast ship"/>
    <edge id="-119104994#11" from="1339097744" to="cluster_1339097414_2773581025" priority="3" type="highway.residential" numLanes="1" speed="13.89" shape="1764.69,1027.27 1734.05,1016.00 1722.34,1012.52" disallow="tram rail_urban rail rail_electric rail_fast ship"/>
    <edge id="-119104994#2" from="2154285147" to="2154285151" priority="3" type="highway.residential" numLanes="1" speed="13.89" disallow="tram rail_urban rail rail_electric rail_fast ship"/>
    <edge id="-119104994#3" from="5670798612" to="2154285147" priority="3" type="highway.residential" numLanes="1" speed="13.89" disallow="tram rail_urban rail rail_electric rail_fast ship"/>
    <edge id="-119104994#4" from="2154285142" to="5670798612" priority="3" type="highway.residential" numLanes="1" speed="13.89" disallow="tram rail_urban rail rail_electric rail_fast ship"/>
    <edge id="-119104994#5" from="2154285139" to="2154285142" priority="3" type="highway.residential" numLanes="1" speed="13.89" disallow="tram rail_urban rail rail_electric rail_fast ship"/>
    <edge id="-119104994#6" from="cluster_1339097544_2154197707" to="2154285139" priority="3" type="highway.residential" numLanes="1" speed="13.89" shape="1578.26,1109.73 1567.19,1127.48" disallow="tram rail_urban rail rail_electric rail_fast ship"/>
    <edge id="-119104994#8" from="cluster_2154197695_5670775365" to="cluster_1339097544_2154197707" priority="3" type="highway.residential" numLanes="1" speed="13.89" shape="1665.20,1046.78 1611.49,1081.22 1582.17,1104.46" disallow="tram rail_urban rail rail_electric rail_fast ship"/>
    <edge id="-119104995#0" from="6808276364" to="1339097407" priority="3" type="highway.residential" numLanes="1" speed="13.89" disallow="tram rail_urban rail rail_electric rail_fast ship"/>
    <edge id="-119104995#1" from="1339097326" to="6808276364" priority="3" type="highway.residential" numLanes="1" speed="13.89" disallow="tram rail_urban rail rail_electric rail_fast ship"/>
    <edge id="-119104995#10" from="cluster_1339097345_6808628321" to="1339097440" priority="3" type="highway.residential" numLanes="1" speed="13.89" shape="863.81,1613.13 847.39,1658.42" disallow="tram rail_urban rail rail_electric rail_fast ship"/>
    <edge id="-119104995#2" from="6808276362" to="1339097326" priority="3" type="highway.residential" numLanes="1" speed="13.89" disallow="tram rail_urban rail rail_electric rail_fast ship"/>
    <edge id="-119104995#3" from="1339097549" to="6808276362" priority="3" type="highway.residential" numLanes="1" speed="13.89" disallow="tram rail_urban rail rail_electric rail_fast ship"/>
    <edge id="-119104995#4" from="1339097666" to="1339097549" priority="3" type="highway.residential" numLanes="1" speed="13.89" disallow="tram rail_urban rail rail_electric rail_fast ship"/>
    <edge id="-119104995#5" from="1339097507" to="1339097666" priority="3" type="highway.residential" numLanes="1" speed="13.89" disallow="tram rail_urban rail rail_electric rail_fast ship"/>
    <edge id="-119104995#6" from="1339097528" to="1339097507" priority="3" type="highway.residential" numLanes="1" speed="13.89" shape="788.63,1808.96 780.20,1831.85 769.59,1858.57" disallow="tram rail_urban rail rail_electric rail_fast ship"/>
    <edge id="-119104995#7" from="1339097462" to="1339097528" priority="3" type="highway.residential" numLanes="1" speed="13.89" disallow="tram rail_urban rail rail_electric rail_fast ship"/>
    <edge id="-119104995#8" from="1339097372" to="1339097462" priority="3" type="highway.residential" numLanes="1" speed="13.89" disallow="tram rail_urban rail rail_electric rail_fast ship"/>
    <edge id="-119104995#9" from="1339097440" to="1339097372" priority="3" type="highway.residential" numLanes="1" speed="13.89" disallow="tram rail_urban rail rail_electric rail_fast ship"/>
    <edge id="-119104996#0" from="1339097357" to="cluster_1339097314_1339097486" priority="3" type="highway.residential" numLanes="1" speed="13.89" shape="1688.22,1549.72 1626.98,1542.23" disallow="tram rail_urban rail rail_electric rail_fast ship"/>
    <edge id="-119104996#1" from="1339097409" to="1339097357" priority="3" type="highway.residential" numLanes="1" speed="13.89" disallow="tram rail_urban rail rail_electric rail_fast ship"/>
    <edge id="-119104996#2" from="5673065216" to="1339097409" priority="3" type="highway.residential" numLanes="1" speed="13.89" disallow="tram rail_urban rail rail_electric rail_fast ship"/>
    <edge id="-119104996#3" from="1339097511" to="5673065216" priority="3" type="highway.residential" numLanes="1" speed="13.89" disallow="tram rail_urban rail rail_electric rail_fast ship"/>
    <edge id="-119104996#4" from="cluster_1339097352_3301604346" to="1339097511" priority="3" type="highway.residential" numLanes="1" speed="13.89" shape="1871.80,1573.86 1835.74,1570.45" disallow="tram rail_urban rail rail_electric rail_fast ship"/>
    <edge id="-119104997#0" from="1339097711" to="1339097563" priority="3" type="highway.residential" numLanes="1" speed="13.89" disallow="tram rail_urban rail rail_electric rail_fast ship"/>
    <edge id="-119104997#1" from="1339097688" to="1339097711" priority="3" type="highway.residential" numLanes="1" speed="13.89" disallow="tram rail_urban rail rail_electric rail_fast ship"/>
    <edge id="-119104997#10" from="1339097690" to="1339097638" priority="3" type="highway.residential" numLanes="1" speed="13.89" disallow="tram rail_urban rail rail_electric rail_fast ship"/>
    <edge id="-119104997#11" from="4210333397" to="1339097690" priority="3" type="highway.residential" numLanes="1" speed="13.89" disallow="tram rail_urban rail rail_electric rail_fast ship"/>
    <edge id="-119104997#12" from="1339097640" to="4210333397" priority="3" type="highway.residential" numLanes="1" speed="13.89" disallow="tram rail_urban rail rail_electric rail_fast ship"/>
    <edge id="-119104997#13" from="1339097628" to="1339097640" priority="3" type="highway.residential" numLanes="1" speed="13.89" disallow="tram rail_urban rail rail_electric rail_fast ship"/>
    <edge id="-119104997#2" from="1339097581" to="1339097688" priority="3" type="highway.residential" numLanes="1" speed="13.89" disallow="tram rail_urban rail rail_electric rail_fast ship"/>
    <edge id="-119104997#3" from="1339097432" to="1339097581" priority="3" type="highway.residential" numLanes="1" speed="13.89" disallow="tram rail_urban rail rail_electric rail_fast ship"/>
    <edge id="-119104997#4" from="1339097481" to="1339097432" priority="3" type="highway.residential" numLanes="1" speed="13.89" disallow="tram rail_urban rail rail_electric rail_fast ship"/>
    <edge id="-119104997#5" from="1339097387" to="1339097481" priority="3" type="highway.residential" numLanes="1" speed="13.89" disallow="tram rail_urban rail rail_electric rail_fast ship"/>
    <edge id="-119104997#6" from="1339097355" to="1339097387" priority="3" type="highway.residential" numLanes="1" speed="13.89" shape="604.97,1550.68 595.22,1578.15 589.74,1593.47" disallow="tram rail_urban rail rail_electric rail_fast ship"/>
    <edge id="-119104997#7" from="1339097725" to="1339097355" priority="3" type="highway.residential" numLanes="1" speed="13.89" shape="633.36,1505.78 612.24,1539.15 604.97,1550.68" disallow="tram rail_urban rail rail_electric rail_fast ship"/>
    <edge id="-119104997#8" from="1339097659" to="1339097725" priority="3" type="highway.residential" numLanes="1" speed="13.89" disallow="tram rail_urban rail rail_electric rail_fast ship"/>
    <edge id="-119104997#9" from="1339097638" to="1339097659" priority="3" type="highway.residential" numLanes="1" speed="13.89" disallow="tram rail_urban rail rail_electric rail_fast ship"/>
    <edge id="-119104998#0" from="5672997251" to="4890624726" priority="3" type="highway.residential" numLanes="1" speed="13.89" disallow="tram rail_urban rail rail_electric rail_fast ship"/>
    <edge id="-119104998#2" from="1339097478" to="5672997251" priority="3" type="highway.residential" numLanes="1" speed="13.89" shape="1725.70,1681.44 1693.69,1676.53 1672.90,1672.61" disallow="tram rail_urban rail rail_electric rail_fast ship"/>
    <edge id="-119104998#3" from="cluster_1339097456_5672997247" to="1339097478" priority="3" type="highway.residential" numLanes="1" speed="13.89" shape="1759.08,1687.95 1725.70,1681.44" disallow="tram rail_urban rail rail_electric rail_fast ship"/>
    <edge id="-119104998#5" from="1339097572" to="cluster_1339097456_5672997247" priority="3" type="highway.residential" numLanes="1" speed="13.89" shape="1818.13,1695.64 1773.17,1689.37" disallow="tram rail_urban rail rail_electric rail_fast ship"/>
    <edge id="-119104998#6" from="1339097590" to="1339097572" priority="3" type="highway.residential" numLanes="1" speed="13.89" disallow="tram rail_urban rail rail_electric rail_fast ship"/>
    <edge id="-119104998#7" from="1366175840" to="1339097590" priority="3" type="highway.residential" numLanes="1" speed="13.89" disallow="tram rail_urban rail rail_electric rail_fast ship"/>
    <edge id="-119104999" from="cluster_1339097361_1339097727" to="1339097358" priority="3" type="highway.residential" numLanes="1" speed="13.89" shape="1368.35,1533.59 1336.87,1527.71" disallow="tram rail_urban rail rail_electric rail_fast ship"/>
    <edge id="-119105003#0" from="cluster_1339097620_5672997252" to="1339097368" priority="3" type="highway.residential" numLanes="1" speed="13.89" shape="1671.07,1638.89 1614.70,1631.35" disallow="tram rail_urban rail rail_electric rail_fast ship"/>
    <edge id="-119105003#2" from="1339097455" to="cluster_1339097620_5672997252" priority="3" type="highway.residential" numLanes="1" speed="13.89" shape="1699.80,1643.76 1678.61,1640.18" disallow="tram rail_urban rail rail_electric rail_fast ship"/>
    <edge id="-119105003#3" from="1339097737" to="1339097455" priority="3" type="highway.residential" numLanes="1" speed="13.89" disallow="tram rail_urban rail rail_electric rail_fast ship"/>
    <edge id="-119105004#0" from="1339097680" to="1339097572" priority="3" type="highway.residential" numLanes="1" speed="13.89" disallow="tram rail_urban rail rail_electric rail_fast ship"/>
    <edge id="-119105004#1" from="1339097341" to="1339097680" priority="3" type="highway.residential" numLanes="1" speed="13.89" disallow="tram rail_urban rail rail_electric rail_fast ship"/>
    <edge id="-119105004#2" from="1339097402" to="1339097341" priority="3" type="highway.residential" numLanes="1" speed="13.89" disallow="tram rail_urban rail rail_electric rail_fast ship"/>
    <edge id="-119105004#3" from="1339097511" to="1339097402" priority="3" type="highway.residential" numLanes="1" speed="13.89" disallow="tram rail_urban rail rail_electric rail_fast ship"/>
    <edge id="-119105006" from="1339097359" to="cluster_1339097322_1339097473" priority="3" type="highway.residential" numLanes="1" speed="13.89" shape="1561.81,2051.81 1516.96,1996.60" disallow="tram rail_urban rail rail_electric rail_fast ship"/>
    <edge id="-119105007#0" from="1339097457" to="1339097425" priority="3" type="highway.residential" numLanes="1" speed="13.89" disallow="tram rail_urban rail rail_electric rail_fast ship"/>
    <edge id="-119105007#1" from="1339097701" to="1339097457" priority="3" type="highway.residential" numLanes="1" speed="13.89" disallow="tram rail_urban rail rail_electric rail_fast ship"/>
    <edge id="-119105007#2" from="1339097475" to="1339097701" priority="3" type="highway.residential" numLanes="1" speed="13.89" disallow="tram rail_urban rail rail_electric rail_fast ship"/>
    <edge id="-119105007#3" from="2977402076" to="1339097475" priority="3" type="highway.residential" numLanes="1" speed="13.89" disallow="tram rail_urban rail rail_electric rail_fast ship"/>