<?xml version="1.0" encoding="UTF-8"?>

<!-- generated on 2022-01-01 10:39:00 by Eclipse SUMO netconvert Version 1.11.0
<configuration xmlns:xsi="http://www.w3.org/2001/XMLSchema-instance" xsi:noNamespaceSchemaLocation="http://sumo.dlr.de/xsd/netconvertConfiguration.xsd">

    <input>
        <sumo-net-file value="berrechid.net.xml"/>
    </input>

    <output>
        <plain-output-prefix value="berrechid"/>
    </output>

    <processing>
        <geometry.min-radius.fix.railways value="false"/>
        <geometry.max-grade.fix value="false"/>
        <offset.disable-normalization value="true"/>
        <lefthand value="false"/>
    </processing>

    <junctions>
        <no-internal-links value="true"/>
        <no-turnarounds value="true"/>
        <junctions.corner-detail value="5"/>
        <junctions.limit-turn-speed value="5.5"/>
        <rectangular-lane-cut value="false"/>
    </junctions>

    <pedestrian>
        <walkingareas value="false"/>
    </pedestrian>

    <report>
        <aggregate-warnings value="5"/>
    </report>

</configuration>
-->

<connections version="1.9" xmlns:xsi="http://www.w3.org/2001/XMLSchema-instance" xsi:noNamespaceSchemaLocation="http://sumo.dlr.de/xsd/connections_file.xsd">
    <connection from="-1011687168" to="139402600#4" fromLane="0" toLane="0" visibility="9.00"/>

    <connection from="-119104965#0" to="-119105018#0" fromLane="0" toLane="0"/>
    <connection from="-119104965#0" to="119105018#1" fromLane="0" toLane="0"/>
    <connection from="-119104965#0" to="119104965#0" fromLane="0" toLane="0"/>

    <connection from="-119104965#1" to="-323358734#1" fromLane="0" toLane="0"/>
    <connection from="-119104965#1" to="-119104965#0" fromLane="0" toLane="0"/>
    <connection from="-119104965#1" to="323358734#2" fromLane="0" toLane="0"/>
    <connection from="-119104965#1" to="119104965#1" fromLane="0" toLane="0"/>

    <connection from="-119104965#2" to="579879889#6" fromLane="0" toLane="0"/>
    <connection from="-119104965#2" to="-119104965#1" fromLane="0" toLane="0"/>
    <connection from="-119104965#2" to="-579879889#5" fromLane="0" toLane="0"/>
    <connection from="-119104965#2" to="119104965#2" fromLane="0" toLane="0"/>

    <connection from="-119104965#3" to="-119104965#2" fromLane="0" toLane="0"/>
    <connection from="-119104965#3" to="-205456021#2" fromLane="0" toLane="0"/>
    <connection from="-119104965#3" to="119104965#3" fromLane="0" toLane="0"/>

    <connection from="-119104966#0" to="-119104982#1" fromLane="0" toLane="0"/>
    <connection from="-119104966#0" to="119104982#2" fromLane="0" toLane="0"/>
    <connection from="-119104966#0" to="119104966#0" fromLane="0" toLane="0"/>

    <connection from="-119104966#1" to="-119104966#0" fromLane="0" toLane="0"/>
    <connection from="-119104966#1" to="119105063#0" fromLane="0" toLane="0"/>
    <connection from="-119104966#1" to="119104966#1" fromLane="0" toLane="0"/>

    <connection from="-119104966#2" to="-119104966#1" fromLane="0" toLane="0"/>
    <connection from="-119104966#2" to="731149160" fromLane="0" toLane="0"/>
    <connection from="-119104966#2" to="119104966#2" fromLane="0" toLane="0"/>

    <connection from="-119104967#0" to="119105002#2" fromLane="0" toLane="0" visibility="9.00"/>

    <connection from="-119104967#1" to="-119104995#10" fromLane="0" toLane="0"/>
    <connection from="-119104967#1" to="579871450" fromLane="0" toLane="0"/>
    <connection from="-119104967#1" to="-119104967#0" fromLane="0" toLane="0"/>
    <connection from="-119104967#1" to="119104967#1" fromLane="0" toLane="0"/>

    <connection from="-119104968#0" to="119105012#3" fromLane="0" toLane="0"/>
    <connection from="-119104968#0" to="119257055#0" fromLane="0" toLane="0"/>
    <connection from="-119104968#0" to="-119105012#1" fromLane="0" toLane="0"/>
    <connection from="-119104968#0" to="119104968#0" fromLane="0" toLane="0"/>

    <connection from="-119104968#1" to="-119104968#0" fromLane="0" toLane="0"/>
    <connection from="-119104968#1" to="-119257078#2" fromLane="0" toLane="0"/>
    <connection from="-119104968#1" to="119104968#1" fromLane="0" toLane="0"/>

    <connection from="-119104968#2" to="-119104968#1" fromLane="0" toLane="0"/>
    <connection from="-119104968#2" to="-119257077" fromLane="0" toLane="0"/>
    <connection from="-119104968#2" to="119104968#2" fromLane="0" toLane="0"/>

    <connection from="-119104968#3" to="-119104968#2" fromLane="0" toLane="0"/>
    <connection from="-119104968#3" to="119257077" fromLane="0" toLane="0"/>
    <connection from="-119104968#3" to="119104968#3" fromLane="0" toLane="0"/>

    <connection from="-119104970#0" to="119105021#3" fromLane="0" toLane="0"/>
    <connection from="-119104970#0" to="-119105021#2" fromLane="0" toLane="0"/>
    <connection from="-119104970#0" to="119104970#0" fromLane="0" toLane="0"/>

    <connection from="-119104970#1" to="119104983#1" fromLane="0" toLane="0"/>
    <connection from="-119104970#1" to="-119104970#0" fromLane="0" toLane="0"/>
    <connection from="-119104970#1" to="-119104983#0" fromLane="0" toLane="0"/>
    <connection from="-119104970#1" to="119104970#1" fromLane="0" toLane="0"/>

    <connection from="-119104972#0" to="119105000#1" fromLane="0" toLane="0"/>
    <connection from="-119104972#0" to="728260006" fromLane="0" toLane="0"/>
    <connection from="-119104972#0" to="119104972#0" fromLane="0" toLane="0"/>

    <connection from="-119104972#1" to="-119105068#1" fromLane="0" toLane="0"/>
    <connection from="-119104972#1" to="-119104972#0" fromLane="0" toLane="0"/>
    <connection from="-119104972#1" to="119104972#1" fromLane="0" toLane="0"/>

    <connection from="-119104972#2" to="-119104972#1" fromLane="0" toLane="0"/>
    <connection from="-119104972#2" to="119105017#3" fromLane="0" toLane="0"/>
    <connection from="-119104972#2" to="119104972#2" fromLane="0" toLane="0"/>

    <connection from="-119104972#3" to="-119104997#10" fromLane="0" toLane="0"/>
    <connection from="-119104972#3" to="-119104972#2" fromLane="0" toLane="0"/>
    <connection from="-119104972#3" to="119104997#11" fromLane="0" toLane="0"/>
    <connection from="-119104972#3" to="119104972#3" fromLane="0" toLane="0"/>

    <connection from="-119104972#4" to="-119104972#3" fromLane="0" toLane="0"/>
    <connection from="-119104972#4" to="-421239269#3" fromLane="0" toLane="0"/>
    <connection from="-119104972#4" to="119104972#4" fromLane="0" toLane="0"/>

    <connection from="-119104972#6" to="119105001#6" fromLane="0" toLane="0"/>
    <connection from="-119104972#6" to="-119105073#12" fromLane="0" toLane="0"/>
    <connection from="-119104972#6" to="-119104972#4" fromLane="0" toLane="0"/>
    <connection from="-119104972#6" to="119104972#6" fromLane="0" toLane="0"/>

    <connection from="-119104975#0" to="119104998#5" fromLane="0" toLane="0"/>
    <connection from="-119104975#0" to="595160583" fromLane="0" toLane="0"/>
    <connection from="-119104975#0" to="-119104998#3" fromLane="0" toLane="0"/>
    <connection from="-119104975#0" to="119104975#0" fromLane="0" toLane="0"/>

    <connection from="-119104975#1" to="119105025" fromLane="0" toLane="0"/>
    <connection from="-119104975#1" to="-119104975#0" fromLane="0" toLane="0"/>
    <connection from="-119104975#1" to="119104975#1" fromLane="0" toLane="0"/>

    <connection from="-119104975#2" to="119105016#0" fromLane="0" toLane="0"/>
    <connection from="-119104975#2" to="-119104975#1" fromLane="0" toLane="0"/>
    <connection from="-119104975#2" to="119104975#2" fromLane="0" toLane="0"/>

    <connection from="-119104976#0" to="119104976#0" fromLane="0" toLane="0"/>

    <connection from="-119104976#1" to="-579879889#0" fromLane="0" toLane="0"/>
    <connection from="-119104976#1" to="-119104976#0" fromLane="0" toLane="0"/>
    <connection from="-119104976#1" to="579879889#1" fromLane="0" toLane="0"/>
    <connection from="-119104976#1" to="119104976#1" fromLane="0" toLane="0"/>

    <connection from="-119104977#0" to="119104977#0" fromLane="0" toLane="0"/>

    <connection from="-119104977#1" to="-579879889#1" fromLane="0" toLane="0"/>
    <connection from="-119104977#1" to="-119104977#0" fromLane="0" toLane="0"/>
    <connection from="-119104977#1" to="579879889#2" fromLane="0" toLane="0"/>
    <connection from="-119104977#1" to="119104977#1" fromLane="0" toLane="0"/>

    <connection from="-119104977#2" to="-119104977#1" fromLane="0" toLane="0"/>
    <connection from="-119104977#2" to="323358700" fromLane="0" toLane="0"/>
    <connection from="-119104977#2" to="119104977#2" fromLane="0" toLane="0"/>

    <connection from="-119104977#3" to="731046659" fromLane="0" toLane="0"/>
    <connection from="-119104977#3" to="-119104977#2" fromLane="0" toLane="0"/>
    <connection from="-119104977#3" to="119104977#3" fromLane="0" toLane="0"/>

    <connection from="-119104979" to="119105003#3" fromLane="0" toLane="0"/>
    <connection from="-119104979" to="-119105003#2" fromLane="0" toLane="0"/>
    <connection from="-119104979" to="119104979" fromLane="0" toLane="0"/>

    <connection from="-119104980#0" to="-119105009#9" fromLane="0" toLane="0"/>
    <connection from="-119104980#0" to="-119105067#3" fromLane="0" toLane="0"/>
    <connection from="-119104980#0" to="119105009#10" fromLane="0" toLane="0"/>
    <connection from="-119104980#0" to="119104980#0" fromLane="0" toLane="0"/>

    <connection from="-119104980#1" to="-119105054" fromLane="0" toLane="0"/>
    <connection from="-119104980#1" to="-119104980#0" fromLane="0" toLane="0"/>
    <connection from="-119104980#1" to="119104980#1" fromLane="0" toLane="0"/>

    <connection from="-119104981" to="725822450#10" fromLane="0" toLane="0"/>
    <connection from="-119104981" to="-466178137#3" fromLane="0" toLane="0"/>
    <connection from="-119104981" to="-725822450#9" fromLane="0" toLane="0"/>
    <connection from="-119104981" to="119104981" fromLane="0" toLane="0"/>

    <connection from="-119104982#1" to="38499490#5" fromLane="0" toLane="0"/>
    <connection from="-119104982#1" to="119104985#8" fromLane="0" toLane="1"/>
    <connection from="-119104982#1" to="119104982#1" fromLane="0" toLane="0"/>

    <connection from="-119104982#10" to="-119104982#9" fromLane="0" toLane="0"/>
    <connection from="-119104982#10" to="-407392687#5" fromLane="0" toLane="0"/>
    <connection from="-119104982#10" to="119104982#10" fromLane="0" toLane="0"/>

    <connection from="-119104982#11" to="-119104982#10" fromLane="0" toLane="0"/>
    <connection from="-119104982#11" to="294172104#0" fromLane="0" toLane="0"/>
    <connection from="-119104982#11" to="119104982#11" fromLane="0" toLane="0"/>

    <connection from="-119104982#2" to="119104966#0" fromLane="0" toLane="0"/>
    <connection from="-119104982#2" to="-119104982#1" fromLane="0" toLane="0"/>
    <connection from="-119104982#2" to="119104982#2" fromLane="0" toLane="0"/>

    <connection from="-119104982#3" to="579879892#0" fromLane="0" toLane="0"/>
    <connection from="-119104982#3" to="-119104982#2" fromLane="0" toLane="0"/>
    <connection from="-119104982#3" to="119105049#0" fromLane="0" toLane="0"/>
    <connection from="-119104982#3" to="119104982#3" fromLane="0" toLane="0"/>

    <connection from="-119104982#4" to="119104999" fromLane="0" toLane="0"/>
    <connection from="-119104982#4" to="-119104982#3" fromLane="0" toLane="0"/>
    <connection from="-119104982#4" to="119104982#4" fromLane="0" toLane="0"/>

    <connection from="-119104982#6" to="119105048#0" fromLane="0" toLane="0"/>
    <connection from="-119104982#6" to="-119104982#4" fromLane="0" toLane="0"/>
    <connection from="-119104982#6" to="-119105019" fromLane="0" toLane="0"/>
    <connection from="-119104982#6" to="119104982#6" fromLane="0" toLane="0"/>

    <connection from="-119104982#7" to="119105067#0" fromLane="0" toLane="0"/>
    <connection from="-119104982#7" to="-119104982#6" fromLane="0" toLane="0"/>
    <connection from="-119104982#7" to="119104982#7" fromLane="0" toLane="0"/>

    <connection from="-119104982#8" to="-595160587" fromLane="0" toLane="0"/>
    <connection from="-119104982#8" to="-119104982#7" fromLane="0" toLane="0"/>
    <connection from="-119104982#8" to="119105047" fromLane="0" toLane="0"/>
    <connection from="-119104982#8" to="119104982#8" fromLane="0" toLane="0"/>

    <connection from="-119104982#9" to="-294172118" fromLane="0" toLane="0"/>
    <connection from="-119104982#9" to="-119104982#8" fromLane="0" toLane="0"/>
    <connection from="-119104982#9" to="119104982#9" fromLane="0" toLane="0"/>

    <connection from="-119104983#0" to="-119105018#3" fromLane="0" toLane="0"/>
    <connection from="-119104983#0" to="119105018#4" fromLane="0" toLane="0"/>
    <connection from="-119104983#0" to="119104983#0" fromLane="0" toLane="0"/>

    <connection from="-119104983#1" to="-119104970#0" fromLane="0" toLane="0"/>
    <connection from="-119104983#1" to="-119104983#0" fromLane="0" toLane="0"/>
    <connection from="-119104983#1" to="119104970#1" fromLane="0" toLane="0"/>
    <connection from="-119104983#1" to="119104983#1" fromLane="0" toLane="0"/>

    <connection from="-119104983#2" to="323358711" fromLane="0" toLane="0"/>
    <connection from="-119104983#2" to="-119104983#1" fromLane="0" toLane="0"/>
    <connection from="-119104983#2" to="119104983#2" fromLane="0" toLane="0"/>

    <connection from="-119104988#0" to="466708093#9" fromLane="0" toLane="0"/>
    <connection from="-119104988#0" to="-466708093#8" fromLane="0" toLane="0"/>
    <connection from="-119104988#0" to="119104988#0" fromLane="0" toLane="0"/>

    <connection from="-119104988#1" to="-119104988#0" fromLane="0" toLane="0"/>
    <connection from="-119104988#1" to="-294172108#8" fromLane="0" toLane="0"/>
    <connection from="-119104988#1" to="119104988#1" fromLane="0" toLane="0"/>

    <connection from="-119104988#10" to="-119104988#9" fromLane="0" toLane="0"/>
    <connection from="-119104988#10" to="-294172110#3" fromLane="0" toLane="0"/>
    <connection from="-119104988#10" to="119104988#10" fromLane="0" toLane="0"/>

    <connection from="-119104988#12" to="-594754406" fromLane="0" toLane="0"/>
    <connection from="-119104988#12" to="-119104988#10" fromLane="0" toLane="0"/>
    <connection from="-119104988#12" to="-272425960#8" fromLane="0" toLane="0"/>
    <connection from="-119104988#12" to="119104988#12" fromLane="0" toLane="0"/>

    <connection from="-119104988#13" to="-119104988#12" fromLane="0" toLane="0"/>
    <connection from="-119104988#13" to="-466178177" fromLane="0" toLane="0"/>
    <connection from="-119104988#13" to="119104988#13" fromLane="0" toLane="0"/>

    <connection from="-119104988#14" to="-272425764#1" fromLane="0" toLane="0"/>
    <connection from="-119104988#14" to="-119104988#13" fromLane="0" toLane="0"/>
    <connection from="-119104988#14" to="119104988#14" fromLane="0" toLane="0"/>

    <connection from="-119104988#15" to="-119104988#14" fromLane="0" toLane="0"/>
    <connection from="-119104988#15" to="-594713050#1" fromLane="0" toLane="0"/>
    <connection from="-119104988#15" to="119104988#15" fromLane="0" toLane="0"/>

    <connection from="-119104988#2" to="-119104988#1" fromLane="0" toLane="0"/>
    <connection from="-119104988#2" to="119961402#0" fromLane="0" toLane="0"/>
    <connection from="-119104988#2" to="119104988#2" fromLane="0" toLane="0"/>

    <connection from="-119104988#3" to="-119104988#2" fromLane="0" toLane="0"/>
    <connection from="-119104988#3" to="-323358735#3" fromLane="0" toLane="0"/>
    <connection from="-119104988#3" to="119104988#3" fromLane="0" toLane="0"/>

    <connection from="-119104988#4" to="176914792#6" fromLane="0" toLane="0"/>
    <connection from="-119104988#4" to="-119104988#3" fromLane="0" toLane="0"/>
    <connection from="-119104988#4" to="-176914792#5" fromLane="0" toLane="0"/>
    <connection from="-119104988#4" to="119104988#4" fromLane="0" toLane="0"/>

    <connection from="-119104988#5" to="-119104988#4" fromLane="0" toLane="0"/>
    <connection from="-119104988#5" to="119961375#0" fromLane="0" toLane="0"/>
    <connection from="-119104988#5" to="119104988#5" fromLane="0" toLane="0"/>

    <connection from="-119104988#7" to="-289430703#2" fromLane="0" toLane="0"/>
    <connection from="-119104988#7" to="-119104988#5" fromLane="0" toLane="0"/>
    <connection from="-119104988#7" to="-294172103#3" fromLane="0" toLane="0"/>
    <connection from="-119104988#7" to="119104988#7" fromLane="0" toLane="0"/>

    <connection from="-119104988#8" to="-119104988#7" fromLane="0" toLane="0"/>
    <connection from="-119104988#8" to="-272425958#3" fromLane="0" toLane="0"/>
    <connection from="-119104988#8" to="119104988#8" fromLane="0" toLane="0"/>

    <connection from="-119104988#9" to="-289430644#1" fromLane="0" toLane="0"/>
    <connection from="-119104988#9" to="-119104988#8" fromLane="0" toLane="0"/>
    <connection from="-119104988#9" to="119104988#9" fromLane="0" toLane="0"/>

    <connection from="-119104991#0" to="119105056#1" fromLane="0" toLane="0"/>
    <connection from="-119104991#0" to="-119105056#0" fromLane="0" toLane="0"/>
    <connection from="-119104991#0" to="119104991#0" fromLane="0" toLane="0"/>

    <connection from="-119104991#1" to="119295628#0" fromLane="0" toLane="0"/>
    <connection from="-119104991#1" to="-119104991#0" fromLane="0" toLane="0"/>
    <connection from="-119104991#1" to="119104991#1" fromLane="0" toLane="0"/>

    <connection from="-119104991#2" to="119105043#1" fromLane="0" toLane="0"/>
    <connection from="-119104991#2" to="-119104991#1" fromLane="0" toLane="0"/>
    <connection from="-119104991#2" to="-119105043#0" fromLane="0" toLane="0"/>
    <connection from="-119104991#2" to="119104991#2" fromLane="0" toLane="0"/>

    <connection from="-119104991#3" to="-119295627#2" fromLane="0" toLane="0"/>
    <connection from="-119104991#3" to="-119104991#2" fromLane="0" toLane="0"/>
    <connection from="-119104991#3" to="119295627#3" fromLane="0" toLane="0"/>
    <connection from="-119104991#3" to="119104991#3" fromLane="0" toLane="0"/>

    <connection from="-119104992#1" to="119104998#3" fromLane="0" toLane="0"/>
    <connection from="-119104992#1" to="-119104998#2" fromLane="0" toLane="0"/>
    <connection from="-119104992#1" to="119104992#0" fromLane="0" toLane="0"/>

    <connection from="-119104992#2" to="-119104992#1" fromLane="0" toLane="0"/>
    <connection from="-119104992#2" to="-119105003#3" fromLane="0" toLane="0"/>
    <connection from="-119104992#2" to="119104992#2" fromLane="0" toLane="0"/>

    <connection from="-119104992#3" to="323358695#3" fromLane="0" toLane="0"/>
    <connection from="-119104992#3" to="-119104992#2" fromLane="0" toLane="0"/>
    <connection from="-119104992#3" to="-323358695#2" fromLane="0" toLane="0"/>
    <connection from="-119104992#3" to="119104992#3" fromLane="0" toLane="0"/>

    <connection from="-119104992#4" to="119104996#2" fromLane="0" toLane="0"/>
    <connection from="-119104992#4" to="-119104992#3" fromLane="0" toLane="0"/>
    <connection from="-119104992#4" to="-119104996#1" fromLane="0" toLane="0"/>
    <connection from="-119104992#4" to="119104992#4" fromLane="0" toLane="0"/>

    <connection from="-119104993#0" to="-119105064#3" fromLane="0" toLane="0"/>
    <connection from="-119104993#0" to="119105064#4" fromLane="0" toLane="0"/>
    <connection from="-119104993#0" to="119104993#0" fromLane="0" toLane="0"/>

    <connection from="-119104993#1" to="-323358738#1" fromLane="0" toLane="0"/>
    <connection from="-119104993#1" to="-119104993#0" fromLane="0" toLane="0"/>
    <connection from="-119104993#1" to="323358738#2" fromLane="0" toLane="0"/>
    <connection from="-119104993#1" to="119104993#1" fromLane="0" toLane="0"/>

    <connection from="-119104993#2" to="725074304" fromLane="0" toLane="0"/>
    <connection from="-119104993#2" to="-119104993#1" fromLane="0" toLane="0"/>
    <connection from="-119104993#2" to="119104993#2" fromLane="0" toLane="0"/>

    <connection from="-119104993#3" to="-119104993#2" fromLane="0" toLane="0"/>
    <connection from="-119104993#3" to="119257060#0" fromLane="0" toLane="0"/>
    <connection from="-119104993#3" to="119104993#3" fromLane="0" toLane="0"/>

    <connection from="-119104994#1" to="119105030#1" fromLane="0" toLane="0"/>
    <connection from="-119104994#1" to="-119105030#0" fromLane="0" toLane="0"/>
    <connection from="-119104994#1" to="-731046663" fromLane="0" toLane="0"/>
    <connection from="-119104994#1" to="119104994#1" fromLane="0" toLane="0"/>

    <connection from="-119104994#10" to="594764908" fromLane="0" toLane="0"/>
    <connection from="-119104994#10" to="205445842#0" fromLane="0" toLane="0"/>
    <connection from="-119104994#10" to="-119104994#8" fromLane="0" toLane="0"/>
    <connection from="-119104994#10" to="119104994#10" fromLane="0" toLane="0"/>

    <connection from="-119104994#11" to="-119104994#10" fromLane="0" toLane="0"/>
    <connection from="-119104994#11" to="-323358743#3" fromLane="0" toLane="0"/>
    <connection from="-119104994#11" to="119961385#0" fromLane="0" toLane="1"/>
    <connection from="-119104994#11" to="119104994#11" fromLane="0" toLane="0"/>

    <connection from="-119104994#2" to="-205456004" fromLane="0" toLane="0"/>
    <connection from="-119104994#2" to="-119104994#1" fromLane="0" toLane="0"/>
    <connection from="-119104994#2" to="119104994#2" fromLane="0" toLane="0"/>

    <connection from="-119104994#3" to="205456016" fromLane="0" toLane="0"/>
    <connection from="-119104994#3" to="-119104994#2" fromLane="0" toLane="0"/>
    <connection from="-119104994#3" to="-205445855#5" fromLane="0" toLane="0"/>
    <connection from="-119104994#3" to="119104994#3" fromLane="0" toLane="0"/>

    <connection from="-119104994#4" to="594768172" fromLane="0" toLane="0"/>
    <connection from="-119104994#4" to="-119104994#3" fromLane="0" toLane="0"/>
    <connection from="-119104994#4" to="119104994#4" fromLane="0" toLane="0"/>

    <connection from="-119104994#5" to="205456027#0" fromLane="0" toLane="0"/>
    <connection from="-119104994#5" to="-119104994#4" fromLane="0" toLane="0"/>
    <connection from="-119104994#5" to="119104994#5" fromLane="0" toLane="0"/>

    <connection from="-119104994#6" to="-205456013#1" fromLane="0" toLane="0"/>
    <connection from="-119104994#6" to="-119104994#5" fromLane="0" toLane="0"/>
    <connection from="-119104994#6" to="119104994#6" fromLane="0" toLane="0"/>

    <connection from="-119104994#8" to="205445836#0" fromLane="0" toLane="0"/>
    <connection from="-119104994#8" to="-119104994#6" fromLane="0" toLane="0"/>
    <connection from="-119104994#8" to="119508599#0" fromLane="0" toLane="0"/>
    <connection from="-119104994#8" to="119104994#8" fromLane="0" toLane="0"/>

    <connection from="-119104995#0" to="411440564#3" fromLane="0" toLane="0"/>
    <connection from="-119104995#0" to="119104995#0" fromLane="0" toLane="0"/>

    <connection from="-119104995#1" to="-119104995#0" fromLane="0" toLane="0"/>
    <connection from="-119104995#1" to="-726178580#1" fromLane="0" toLane="0"/>
    <connection from="-119104995#1" to="119104995#1" fromLane="0" toLane="0"/>

    <connection from="-119104995#10" to="-119105027#1" fromLane="0" toLane="0"/>
    <connection from="-119104995#10" to="-119104995#9" fromLane="0" toLane="0"/>
    <connection from="-119104995#10" to="119105027#2" fromLane="0" toLane="0"/>
    <connection from="-119104995#10" to="119104995#10" fromLane="0" toLane="0"/>

    <connection from="-119104995#2" to="119105044#3" fromLane="0" toLane="0"/>
    <connection from="-119104995#2" to="-119104995#1" fromLane="0" toLane="0"/>
    <connection from="-119104995#2" to="119104995#2" fromLane="0" toLane="0"/>

    <connection from="-119104995#3" to="-119104995#2" fromLane="0" toLane="0"/>
    <connection from="-119104995#3" to="-726178579" fromLane="0" toLane="0"/>
    <connection from="-119104995#3" to="119104995#3" fromLane="0" toLane="0"/>

    <connection from="-119104995#4" to="-119104995#3" fromLane="0" toLane="0"/>
    <connection from="-119104995#4" to="119104971#1" fromLane="0" toLane="0"/>
    <connection from="-119104995#4" to="119104995#4" fromLane="0" toLane="0"/>

    <connection from="-119104995#5" to="119105066#3" fromLane="0" toLane="0"/>
    <connection from="-119104995#5" to="-119104995#4" fromLane="0" toLane="0"/>
    <connection from="-119104995#5" to="119104995#5" fromLane="0" toLane="0"/>

    <connection from="-119104995#6" to="-119104995#5" fromLane="0" toLane="0"/>
    <connection from="-119104995#6" to="119105059#1" fromLane="0" toLane="0"/>
    <connection from="-119104995#6" to="119104995#6" fromLane="0" toLane="0"/>

    <connection from="-119104995#7" to="119105032#4" fromLane="0" toLane="0"/>
    <connection from="-119104995#7" to="-119104995#6" fromLane="0" toLane="0"/>
    <connection from="-119104995#7" to="119104995#7" fromLane="0" toLane="0"/>

    <connection from="-119104995#8" to="-119104995#7" fromLane="0" toLane="0"/>
    <connection from="-119104995#8" to="119104989#1" fromLane="0" toLane="0"/>
    <connection from="-119104995#8" to="119104995#8" fromLane="0" toLane="0"/>

    <connection from="-119104995#9" to="119105014#3" fromLane="0" toLane="0"/>
    <connection from="-119104995#9" to="-119104995#8" fromLane="0" toLane="0"/>
    <connection from="-119104995#9" to="119104995#9" fromLane="0" toLane="0"/>

    <connection from="-119104996#0" to="-119105009#7" fromLane="0" toLane="0"/>
    <connection from="-119104996#0" to="-119105048#5" fromLane="0" toLane="0"/>
    <connection from="-119104996#0" to="119105009#9" fromLane="0" toLane="0"/>
    <connection from="-119104996#0" to="119104996#0" fromLane="0" toLane="0"/>

    <connection from="-119104996#1" to="-119104996#0" fromLane="0" toLane="0"/>
    <connection from="-119104996#1" to="119105054" fromLane="0" toLane="0"/>
    <connection from="-119104996#1" to="119104996#1" fromLane="0" toLane="0"/>

    <connection from="-119104996#2" to="-119104992#3" fromLane="0" toLane="0"/>
    <connection from="-119104996#2" to="-119104996#1" fromLane="0" toLane="0"/>
    <connection from="-119104996#2" to="119104992#4" fromLane="0" toLane="0"/>
    <connection from="-119104996#2" to="119104996#2" fromLane="0" toLane="0"/>

    <connection from="-119104996#3" to="-595168793" fromLane="0" toLane="0"/>
    <connection from="-119104996#3" to="-119104996#2" fromLane="0" toLane="0"/>
    <connection from="-119104996#3" to="119104996#3" fromLane="0" toLane="0"/>

    <connection from="-119104996#4" to="-119105004#3" fromLane="0" toLane="0"/>
    <connection from="-119104996#4" to="-119104996#3" fromLane="0" toLane="0"/>
    <connection from="-119104996#4" to="119104996#4" fromLane="0" toLane="0"/>

    <connection from="-119104997#0" to="-247017508#3" fromLane="0" toLane="0"/>
    <connection from="-119104997#0" to="247017508#4" fromLane="0" toLane="0"/>
    <connection from="-119104997#0" to="119104997#0" fromLane="0" toLane="0"/>

    <connection from="-119104997#1" to="-119104997#0" fromLane="0" toLane="0"/>
    <connection from="-119104997#1" to="119104971#4" fromLane="0" toLane="0"/>
    <connection from="-119104997#1" to="119104997#1" fromLane="0" toLane="0"/>

    <connection from="-119104997#10" to="-119104997#9" fromLane="0" toLane="0"/>
    <connection from="-119104997#10" to="119105017#2" fromLane="0" toLane="0"/>
    <connection from="-119104997#10" to="119104997#10" fromLane="0" toLane="0"/>

    <connection from="-119104997#11" to="119104972#3" fromLane="0" toLane="0"/>
    <connection from="-119104997#11" to="-119104997#10" fromLane="0" toLane="0"/>
    <connection from="-119104997#11" to="-119104972#2" fromLane="0" toLane="0"/>
    <connection from="-119104997#11" to="119104997#11" fromLane="0" toLane="0"/>

    <connection from="-119104997#12" to="421239269#3" fromLane="0" toLane="0"/>
    <connection from="-119104997#12" to="-119104997#11" fromLane="0" toLane="0"/>
    <connection from="-119104997#12" to="-421239269#2" fromLane="0" toLane="0"/>
    <connection from="-119104997#12" to="119104997#12" fromLane="0" toLane="0"/>

    <connection from="-119104997#13" to="119105001#4" fromLane="0" toLane="0"/>
    <connection from="-119104997#13" to="-119104997#12" fromLane="0" toLane="0"/>
    <connection from="-119104997#13" to="119104997#13" fromLane="0" toLane="0"/>

    <connection from="-119104997#2" to="119105066#0" fromLane="0" toLane="0"/>
    <connection from="-119104997#2" to="-119104997#1" fromLane="0" toLane="0"/>
    <connection from="-119104997#2" to="119104997#2" fromLane="0" toLane="0"/>

    <connection from="-119104997#3" to="-119104997#2" fromLane="0" toLane="0"/>
    <connection from="-119104997#3" to="119105059#5" fromLane="0" toLane="0"/>
    <connection from="-119104997#3" to="119104997#3" fromLane="0" toLane="0"/>

    <connection from="-119104997#4" to="119105032#1" fromLane="0" toLane="0"/>
    <connection from="-119104997#4" to="-119104997#3" fromLane="0" toLane="0"/>
    <connection from="-119104997#4" to="119104997#4" fromLane="0" toLane="0"/>

    <connection from="-119104997#5" to="-119104997#4" fromLane="0" toLane="0"/>
    <connection from="-119104997#5" to="119104997#5" fromLane="0" toLane="0"/>

    <connection from="-119104997#6" to="119105014#0" fromLane="0" toLane="0"/>
    <connection from="-119104997#6" to="-119104997#5" fromLane="0" toLane="0"/>
    <connection from="-119104997#6" to="119104997#6" fromLane="0" toLane="0"/>

    <connection from="-119104997#7" to="-119105027#4" fromLane="0" toLane="0"/>
    <connection from="-119104997#7" to="-119104997#6" fromLane="0" toLane="0"/>
    <connection from="-119104997#7" to="119105027#5" fromLane="0" toLane="0"/>
    <connection from="-119104997#7" to="119104997#7" fromLane="0" toLane="0"/>

    <connection from="-119104997#8" to="119105000#2" fromLane="0" toLane="0"/>
    <connection from="-119104997#8" to="-119104997#7" fromLane="0" toLane="0"/>